/*---------------------------------------------------------------------------*\
| =========                 |                                                 |
| \\      /  F ield         | OpenFOAM: The Open Source CFD Toolbox           |
|  \\    /   O peration     | Version:  3.0.x                                 |
|   \\  /    A nd           | Web:      www.OpenFOAM.org                      |
|    \\/     M anipulation  |                                                 |
\*---------------------------------------------------------------------------*/
Build  : 3.0.x-221b8ab77307
Exec   : simpleFoam
Date   : Sep 28 2020
Time   : 09:18:37
Host   : "ubuntu"
PID    : 4580
Case   : /media/ubuntu/Windows/OpenFoam/BasicModule/BasicTutorials/basicTutorial01/simpleFoam/cavity/squareCavity/Grid-100-100
nProcs : 1
sigFpe : Enabling floating point exception trapping (FOAM_SIGFPE).
fileModificationChecking : Monitoring run-time modified files using timeStampMaster
allowSystemOperations : Allowing user-supplied system call operations

// * * * * * * * * * * * * * * * * * * * * * * * * * * * * * * * * * * * * * //
Create time

Create mesh for time = 0


SIMPLE: convergence criteria
    field p	 tolerance 1e-06
    field U	 tolerance 1e-06
    field "(k|epsilon|omega|f|v2)"	 tolerance 1e-06

Reading field p

Reading field U

Reading/calculating face flux field phi

Selecting incompressible transport model Newtonian
Selecting turbulence model type laminar
No MRF models present

No finite volume options present


Starting time loop

Time = 1

smoothSolver:  Solving for Ux, Initial residual = 1, Final residual = 0.0579334, No Iterations 3
smoothSolver:  Solving for Uy, Initial residual = 0.9999, Final residual = 0.0246682, No Iterations 2
GAMG:  Solving for p, Initial residual = 1, Final residual = 0.026716, No Iterations 4
time step continuity errors : sum local = 0.000728721, global = 5.1002e-18, cumulative = 5.1002e-18
ExecutionTime = 0.08 s  ClockTime = 0 s

Time = 2

smoothSolver:  Solving for Ux, Initial residual = 0.167587, Final residual = 0.0109017, No Iterations 5
smoothSolver:  Solving for Uy, Initial residual = 0.347983, Final residual = 0.0319128, No Iterations 5
GAMG:  Solving for p, Initial residual = 0.3341, Final residual = 0.00967012, No Iterations 3
time step continuity errors : sum local = 0.000643963, global = 6.03511e-19, cumulative = 5.70371e-18
ExecutionTime = 0.09 s  ClockTime = 0 s

Time = 3

smoothSolver:  Solving for Ux, Initial residual = 0.0867651, Final residual = 0.0072271, No Iterations 5
smoothSolver:  Solving for Uy, Initial residual = 0.174148, Final residual = 0.0127772, No Iterations 6
GAMG:  Solving for p, Initial residual = 0.187297, Final residual = 0.00507788, No Iterations 3
time step continuity errors : sum local = 0.000466164, global = 7.89858e-19, cumulative = 6.49357e-18
ExecutionTime = 0.1 s  ClockTime = 0 s

Time = 4

smoothSolver:  Solving for Ux, Initial residual = 0.0541477, Final residual = 0.00498697, No Iterations 5
smoothSolver:  Solving for Uy, Initial residual = 0.105544, Final residual = 0.00781077, No Iterations 6
GAMG:  Solving for p, Initial residual = 0.102088, Final residual = 0.0101265, No Iterations 2
time step continuity errors : sum local = 0.0010915, global = 9.04175e-19, cumulative = 7.39774e-18
ExecutionTime = 0.12 s  ClockTime = 0 s

Time = 5

smoothSolver:  Solving for Ux, Initial residual = 0.0396112, Final residual = 0.00391375, No Iterations 5
smoothSolver:  Solving for Uy, Initial residual = 0.0751015, Final residual = 0.00573428, No Iterations 6
GAMG:  Solving for p, Initial residual = 0.0711973, Final residual = 0.00667802, No Iterations 2
time step continuity errors : sum local = 0.000822513, global = 5.49513e-18, cumulative = 1.28929e-17
ExecutionTime = 0.13 s  ClockTime = 0 s

Time = 6

smoothSolver:  Solving for Ux, Initial residual = 0.0305683, Final residual = 0.00202674, No Iterations 6
smoothSolver:  Solving for Uy, Initial residual = 0.0557561, Final residual = 0.00429108, No Iterations 6
GAMG:  Solving for p, Initial residual = 0.0501151, Final residual = 0.00467378, No Iterations 2
time step continuity errors : sum local = 0.000625892, global = 1.14942e-17, cumulative = 2.43871e-17
ExecutionTime = 0.14 s  ClockTime = 0 s

Time = 7

smoothSolver:  Solving for Ux, Initial residual = 0.0248516, Final residual = 0.00170447, No Iterations 6
smoothSolver:  Solving for Uy, Initial residual = 0.0451878, Final residual = 0.00355644, No Iterations 6
GAMG:  Solving for p, Initial residual = 0.0385339, Final residual = 0.000991542, No Iterations 3
time step continuity errors : sum local = 0.000139913, global = 2.30327e-18, cumulative = 2.66904e-17
ExecutionTime = 0.15 s  ClockTime = 0 s

Time = 8

smoothSolver:  Solving for Ux, Initial residual = 0.0208026, Final residual = 0.0014615, No Iterations 6
smoothSolver:  Solving for Uy, Initial residual = 0.0375733, Final residual = 0.00299715, No Iterations 6
GAMG:  Solving for p, Initial residual = 0.0312021, Final residual = 0.00104758, No Iterations 3
time step continuity errors : sum local = 0.000155522, global = 5.14943e-18, cumulative = 3.18398e-17
ExecutionTime = 0.17 s  ClockTime = 0 s

Time = 9

smoothSolver:  Solving for Ux, Initial residual = 0.0182326, Final residual = 0.00131461, No Iterations 6
smoothSolver:  Solving for Uy, Initial residual = 0.0328176, Final residual = 0.00266357, No Iterations 6
GAMG:  Solving for p, Initial residual = 0.0279581, Final residual = 0.000808228, No Iterations 3
time step continuity errors : sum local = 0.000127279, global = 1.30099e-18, cumulative = 3.31408e-17
ExecutionTime = 0.18 s  ClockTime = 0 s

Time = 10

smoothSolver:  Solving for Ux, Initial residual = 0.0160968, Final residual = 0.00118111, No Iterations 6
smoothSolver:  Solving for Uy, Initial residual = 0.0288097, Final residual = 0.00235237, No Iterations 6
GAMG:  Solving for p, Initial residual = 0.0248451, Final residual = 0.0007104, No Iterations 3
time step continuity errors : sum local = 0.00011779, global = 2.75762e-18, cumulative = 3.58984e-17
ExecutionTime = 0.19 s  ClockTime = 0 s

Time = 11

smoothSolver:  Solving for Ux, Initial residual = 0.0143899, Final residual = 0.00107089, No Iterations 6
smoothSolver:  Solving for Uy, Initial residual = 0.0256961, Final residual = 0.00211115, No Iterations 6
GAMG:  Solving for p, Initial residual = 0.0225557, Final residual = 0.000656525, No Iterations 3
time step continuity errors : sum local = 0.000113782, global = -1.98023e-17, cumulative = 1.60961e-17
ExecutionTime = 0.21 s  ClockTime = 0 s

Time = 12

smoothSolver:  Solving for Ux, Initial residual = 0.0130069, Final residual = 0.000979095, No Iterations 6
smoothSolver:  Solving for Uy, Initial residual = 0.0232411, Final residual = 0.00191634, No Iterations 6
GAMG:  Solving for p, Initial residual = 0.020695, Final residual = 0.000613326, No Iterations 3
time step continuity errors : sum local = 0.000110583, global = 4.723e-18, cumulative = 2.08191e-17
ExecutionTime = 0.22 s  ClockTime = 0 s

Time = 13

smoothSolver:  Solving for Ux, Initial residual = 0.0118577, Final residual = 0.000901418, No Iterations 6
smoothSolver:  Solving for Uy, Initial residual = 0.0212484, Final residual = 0.00175553, No Iterations 6
GAMG:  Solving for p, Initial residual = 0.0192043, Final residual = 0.000576481, No Iterations 3
time step continuity errors : sum local = 0.000107721, global = -7.85544e-18, cumulative = 1.29637e-17
ExecutionTime = 0.23 s  ClockTime = 0 s

Time = 14

smoothSolver:  Solving for Ux, Initial residual = 0.0108913, Final residual = 0.00083478, No Iterations 6
smoothSolver:  Solving for Uy, Initial residual = 0.0195909, Final residual = 0.0016207, No Iterations 6
GAMG:  Solving for p, Initial residual = 0.0179618, Final residual = 0.00128489, No Iterations 3
time step continuity errors : sum local = 0.000215268, global = 3.38601e-18, cumulative = 1.63497e-17
ExecutionTime = 0.24 s  ClockTime = 0 s

Time = 15

smoothSolver:  Solving for Ux, Initial residual = 0.0100959, Final residual = 0.000779518, No Iterations 6
smoothSolver:  Solving for Uy, Initial residual = 0.0182737, Final residual = 0.00151375, No Iterations 6
GAMG:  Solving for p, Initial residual = 0.0176365, Final residual = 0.000519981, No Iterations 3
time step continuity errors : sum local = 9.08813e-05, global = -5.52027e-19, cumulative = 1.57977e-17
ExecutionTime = 0.25 s  ClockTime = 0 s

Time = 16

smoothSolver:  Solving for Ux, Initial residual = 0.00932098, Final residual = 0.000723348, No Iterations 6
smoothSolver:  Solving for Uy, Initial residual = 0.0169575, Final residual = 0.00140317, No Iterations 6
GAMG:  Solving for p, Initial residual = 0.0157013, Final residual = 0.000581376, No Iterations 3
time step continuity errors : sum local = 0.000103076, global = -1.2049e-18, cumulative = 1.45927e-17
ExecutionTime = 0.27 s  ClockTime = 1 s

Time = 17

smoothSolver:  Solving for Ux, Initial residual = 0.00872562, Final residual = 0.000681851, No Iterations 6
smoothSolver:  Solving for Uy, Initial residual = 0.0159454, Final residual = 0.00132294, No Iterations 6
GAMG:  Solving for p, Initial residual = 0.0150531, Final residual = 0.00051925, No Iterations 3
time step continuity errors : sum local = 9.4554e-05, global = 7.07537e-19, cumulative = 1.53003e-17
ExecutionTime = 0.28 s  ClockTime = 1 s

Time = 18

smoothSolver:  Solving for Ux, Initial residual = 0.0081862, Final residual = 0.000642881, No Iterations 6
smoothSolver:  Solving for Uy, Initial residual = 0.0150221, Final residual = 0.00124641, No Iterations 6
GAMG:  Solving for p, Initial residual = 0.0141699, Final residual = 0.000494607, No Iterations 3
time step continuity errors : sum local = 9.23736e-05, global = -7.69649e-18, cumulative = 7.6038e-18
ExecutionTime = 0.29 s  ClockTime = 1 s

Time = 19

smoothSolver:  Solving for Ux, Initial residual = 0.0077038, Final residual = 0.000607608, No Iterations 6
smoothSolver:  Solving for Uy, Initial residual = 0.0142056, Final residual = 0.0011793, No Iterations 6
GAMG:  Solving for p, Initial residual = 0.0134547, Final residual = 0.000480725, No Iterations 3
time step continuity errors : sum local = 9.19101e-05, global = -3.22865e-18, cumulative = 4.37515e-18
ExecutionTime = 0.3 s  ClockTime = 1 s

Time = 20

smoothSolver:  Solving for Ux, Initial residual = 0.00727392, Final residual = 0.000576097, No Iterations 6
smoothSolver:  Solving for Uy, Initial residual = 0.0134814, Final residual = 0.00111981, No Iterations 6
GAMG:  Solving for p, Initial residual = 0.0128006, Final residual = 0.000465169, No Iterations 3
time step continuity errors : sum local = 9.09796e-05, global = 1.41963e-17, cumulative = 1.85714e-17
ExecutionTime = 0.32 s  ClockTime = 1 s

Time = 21

smoothSolver:  Solving for Ux, Initial residual = 0.0068883, Final residual = 0.000547527, No Iterations 6
smoothSolver:  Solving for Uy, Initial residual = 0.0128308, Final residual = 0.00106631, No Iterations 6
GAMG:  Solving for p, Initial residual = 0.0121894, Final residual = 0.000949185, No Iterations 3
time step continuity errors : sum local = 0.000168935, global = 9.75173e-18, cumulative = 2.83231e-17
ExecutionTime = 0.33 s  ClockTime = 1 s

Time = 22

smoothSolver:  Solving for Ux, Initial residual = 0.00655234, Final residual = 0.000522528, No Iterations 6
smoothSolver:  Solving for Uy, Initial residual = 0.0122719, Final residual = 0.00102045, No Iterations 6
GAMG:  Solving for p, Initial residual = 0.0122504, Final residual = 0.000446574, No Iterations 3
time step continuity errors : sum local = 8.19352e-05, global = -3.51029e-18, cumulative = 2.48129e-17
ExecutionTime = 0.34 s  ClockTime = 1 s

Time = 23

smoothSolver:  Solving for Ux, Initial residual = 0.0062184, Final residual = 0.000497135, No Iterations 6
smoothSolver:  Solving for Uy, Initial residual = 0.0117055, Final residual = 0.000972636, No Iterations 6
GAMG:  Solving for p, Initial residual = 0.0110124, Final residual = 0.000471419, No Iterations 3
time step continuity errors : sum local = 8.76199e-05, global = -1.26658e-18, cumulative = 2.35463e-17
ExecutionTime = 0.35 s  ClockTime = 1 s

Time = 24

smoothSolver:  Solving for Ux, Initial residual = 0.00594002, Final residual = 0.000476831, No Iterations 6
smoothSolver:  Solving for Uy, Initial residual = 0.0112226, Final residual = 0.000933993, No Iterations 6
GAMG:  Solving for p, Initial residual = 0.0107486, Final residual = 0.000441722, No Iterations 3
time step continuity errors : sum local = 8.36671e-05, global = 7.90904e-18, cumulative = 3.14553e-17
ExecutionTime = 0.36 s  ClockTime = 1 s

Time = 25

smoothSolver:  Solving for Ux, Initial residual = 0.00568576, Final residual = 0.000457656, No Iterations 6
smoothSolver:  Solving for Uy, Initial residual = 0.0107713, Final residual = 0.000896473, No Iterations 6
GAMG:  Solving for p, Initial residual = 0.010305, Final residual = 0.000423315, No Iterations 3
time step continuity errors : sum local = 8.17768e-05, global = -1.62461e-17, cumulative = 1.52092e-17
ExecutionTime = 0.38 s  ClockTime = 1 s

Time = 26

smoothSolver:  Solving for Ux, Initial residual = 0.00544979, Final residual = 0.00043984, No Iterations 6
smoothSolver:  Solving for Uy, Initial residual = 0.0103527, Final residual = 0.000861865, No Iterations 6
GAMG:  Solving for p, Initial residual = 0.0099346, Final residual = 0.000414504, No Iterations 3
time step continuity errors : sum local = 8.15664e-05, global = 2.83424e-17, cumulative = 4.35516e-17
ExecutionTime = 0.39 s  ClockTime = 1 s

Time = 27

smoothSolver:  Solving for Ux, Initial residual = 0.00523345, Final residual = 0.000423418, No Iterations 6
smoothSolver:  Solving for Uy, Initial residual = 0.00996809, Final residual = 0.000830129, No Iterations 6
GAMG:  Solving for p, Initial residual = 0.0096002, Final residual = 0.000405076, No Iterations 3
time step continuity errors : sum local = 8.11517e-05, global = -2.08696e-17, cumulative = 2.2682e-17
ExecutionTime = 0.4 s  ClockTime = 1 s

Time = 28

smoothSolver:  Solving for Ux, Initial residual = 0.00503495, Final residual = 0.000408288, No Iterations 6
smoothSolver:  Solving for Uy, Initial residual = 0.00961154, Final residual = 0.00080074, No Iterations 6
GAMG:  Solving for p, Initial residual = 0.00927335, Final residual = 0.000750504, No Iterations 3
time step continuity errors : sum local = 0.000138701, global = -1.76569e-17, cumulative = 5.02511e-18
ExecutionTime = 0.41 s  ClockTime = 1 s

Time = 29

smoothSolver:  Solving for Ux, Initial residual = 0.00485646, Final residual = 0.0003946, No Iterations 6
smoothSolver:  Solving for Uy, Initial residual = 0.00929142, Final residual = 0.000774301, No Iterations 6
GAMG:  Solving for p, Initial residual = 0.00940496, Final residual = 0.000402867, No Iterations 3
time step continuity errors : sum local = 7.62304e-05, global = 4.47736e-18, cumulative = 9.50247e-18
ExecutionTime = 0.43 s  ClockTime = 1 s

Time = 30

smoothSolver:  Solving for Ux, Initial residual = 0.00468082, Final residual = 0.000380934, No Iterations 6
smoothSolver:  Solving for Uy, Initial residual = 0.00897059, Final residual = 0.000747365, No Iterations 6
GAMG:  Solving for p, Initial residual = 0.00856956, Final residual = 0.000402944, No Iterations 3
time step continuity errors : sum local = 7.7227e-05, global = 6.68362e-19, cumulative = 1.01708e-17
ExecutionTime = 0.44 s  ClockTime = 1 s

Time = 31

smoothSolver:  Solving for Ux, Initial residual = 0.00452632, Final residual = 0.000369474, No Iterations 6
smoothSolver:  Solving for Uy, Initial residual = 0.00867716, Final residual = 0.000723758, No Iterations 6
GAMG:  Solving for p, Initial residual = 0.00843745, Final residual = 0.000392257, No Iterations 3
time step continuity errors : sum local = 7.62611e-05, global = -2.63136e-18, cumulative = 7.53947e-18
ExecutionTime = 0.45 s  ClockTime = 1 s

Time = 32

smoothSolver:  Solving for Ux, Initial residual = 0.0043855, Final residual = 0.000358573, No Iterations 6
smoothSolver:  Solving for Uy, Initial residual = 0.00839989, Final residual = 0.000700815, No Iterations 6
GAMG:  Solving for p, Initial residual = 0.00817297, Final residual = 0.000378949, No Iterations 3
time step continuity errors : sum local = 7.48645e-05, global = -6.59918e-18, cumulative = 9.40293e-19
ExecutionTime = 0.46 s  ClockTime = 1 s

Time = 33

smoothSolver:  Solving for Ux, Initial residual = 0.0042533, Final residual = 0.000348447, No Iterations 6
smoothSolver:  Solving for Uy, Initial residual = 0.00813715, Final residual = 0.000679073, No Iterations 6
GAMG:  Solving for p, Initial residual = 0.00793619, Final residual = 0.000371287, No Iterations 3
time step continuity errors : sum local = 7.4502e-05, global = -1.96464e-17, cumulative = -1.87061e-17
ExecutionTime = 0.48 s  ClockTime = 1 s

Time = 34

smoothSolver:  Solving for Ux, Initial residual = 0.00412965, Final residual = 0.000338863, No Iterations 6
smoothSolver:  Solving for Uy, Initial residual = 0.00789047, Final residual = 0.00065874, No Iterations 6
GAMG:  Solving for p, Initial residual = 0.00771064, Final residual = 0.000364631, No Iterations 3
time step continuity errors : sum local = 7.42674e-05, global = -1.25618e-17, cumulative = -3.12679e-17
ExecutionTime = 0.49 s  ClockTime = 1 s

Time = 35

smoothSolver:  Solving for Ux, Initial residual = 0.00401464, Final residual = 0.000329953, No Iterations 6
smoothSolver:  Solving for Uy, Initial residual = 0.0076577, Final residual = 0.000639601, No Iterations 6
GAMG:  Solving for p, Initial residual = 0.00749483, Final residual = 0.00061796, No Iterations 3
time step continuity errors : sum local = 0.000117031, global = -2.1467e-18, cumulative = -3.34146e-17
ExecutionTime = 0.51 s  ClockTime = 1 s

Time = 36

smoothSolver:  Solving for Ux, Initial residual = 0.00390904, Final residual = 0.000321685, No Iterations 6
smoothSolver:  Solving for Uy, Initial residual = 0.00744378, Final residual = 0.000621903, No Iterations 6
GAMG:  Solving for p, Initial residual = 0.00762319, Final residual = 0.000374512, No Iterations 3
time step continuity errors : sum local = 7.24311e-05, global = 1.4165e-17, cumulative = -1.92495e-17
ExecutionTime = 0.52 s  ClockTime = 1 s

Time = 37

smoothSolver:  Solving for Ux, Initial residual = 0.00380622, Final residual = 0.000313626, No Iterations 6
smoothSolver:  Solving for Uy, Initial residual = 0.00723184, Final residual = 0.000604222, No Iterations 6
GAMG:  Solving for p, Initial residual = 0.00699237, Final residual = 0.000358864, No Iterations 3
time step continuity errors : sum local = 7.02904e-05, global = 9.20831e-18, cumulative = -1.00412e-17
ExecutionTime = 0.53 s  ClockTime = 1 s

Time = 38

smoothSolver:  Solving for Ux, Initial residual = 0.00371265, Final residual = 0.000306551, No Iterations 6
smoothSolver:  Solving for Uy, Initial residual = 0.00702958, Final residual = 0.000587823, No Iterations 6
GAMG:  Solving for p, Initial residual = 0.00689719, Final residual = 0.000356578, No Iterations 3
time step continuity errors : sum local = 7.06694e-05, global = -6.54148e-18, cumulative = -1.65827e-17
ExecutionTime = 0.54 s  ClockTime = 1 s

Time = 39

smoothSolver:  Solving for Ux, Initial residual = 0.00362677, Final residual = 0.000299856, No Iterations 6
smoothSolver:  Solving for Uy, Initial residual = 0.00683676, Final residual = 0.000571948, No Iterations 6
GAMG:  Solving for p, Initial residual = 0.00671717, Final residual = 0.000348249, No Iterations 3
time step continuity errors : sum local = 6.99503e-05, global = -9.02169e-18, cumulative = -2.56044e-17
ExecutionTime = 0.56 s  ClockTime = 1 s

Time = 40

smoothSolver:  Solving for Ux, Initial residual = 0.00354535, Final residual = 0.00029352, No Iterations 6
smoothSolver:  Solving for Uy, Initial residual = 0.00665222, Final residual = 0.000556717, No Iterations 6
GAMG:  Solving for p, Initial residual = 0.00653526, Final residual = 0.000341432, No Iterations 3
time step continuity errors : sum local = 6.95192e-05, global = 1.17616e-17, cumulative = -1.38428e-17
ExecutionTime = 0.57 s  ClockTime = 1 s

Time = 41

smoothSolver:  Solving for Ux, Initial residual = 0.00346803, Final residual = 0.000287521, No Iterations 6
smoothSolver:  Solving for Uy, Initial residual = 0.00647727, Final residual = 0.000542273, No Iterations 6
GAMG:  Solving for p, Initial residual = 0.00636502, Final residual = 0.000335916, No Iterations 3
time step continuity errors : sum local = 6.9299e-05, global = -4.79447e-18, cumulative = -1.86373e-17
ExecutionTime = 0.59 s  ClockTime = 1 s

Time = 42

smoothSolver:  Solving for Ux, Initial residual = 0.00339551, Final residual = 0.000281831, No Iterations 6
smoothSolver:  Solving for Uy, Initial residual = 0.00631039, Final residual = 0.000528536, No Iterations 6
GAMG:  Solving for p, Initial residual = 0.00619975, Final residual = 0.000529903, No Iterations 3
time step continuity errors : sum local = 0.000101965, global = 7.54759e-18, cumulative = -1.10897e-17
ExecutionTime = 0.6 s  ClockTime = 1 s

Time = 43

smoothSolver:  Solving for Ux, Initial residual = 0.0033274, Final residual = 0.000276395, No Iterations 6
smoothSolver:  Solving for Uy, Initial residual = 0.00615536, Final residual = 0.000515697, No Iterations 6
GAMG:  Solving for p, Initial residual = 0.00630469, Final residual = 0.000352743, No Iterations 3
time step continuity errors : sum local = 6.9357e-05, global = 1.7731e-17, cumulative = 6.64135e-18
ExecutionTime = 0.61 s  ClockTime = 1 s

Time = 44

smoothSolver:  Solving for Ux, Initial residual = 0.00326058, Final residual = 0.000271177, No Iterations 6
smoothSolver:  Solving for Uy, Initial residual = 0.00600264, Final residual = 0.000503058, No Iterations 6
GAMG:  Solving for p, Initial residual = 0.00581404, Final residual = 0.000328976, No Iterations 3
time step continuity errors : sum local = 6.54965e-05, global = 4.99035e-18, cumulative = 1.16317e-17
ExecutionTime = 0.62 s  ClockTime = 1 s

Time = 45

smoothSolver:  Solving for Ux, Initial residual = 0.00319988, Final residual = 0.000266523, No Iterations 6
smoothSolver:  Solving for Uy, Initial residual = 0.00585247, Final residual = 0.00049084, No Iterations 6
GAMG:  Solving for p, Initial residual = 0.00572636, Final residual = 0.000328409, No Iterations 3
time step continuity errors : sum local = 6.60869e-05, global = 9.70117e-19, cumulative = 1.26018e-17
ExecutionTime = 0.63 s  ClockTime = 1 s

Time = 46

smoothSolver:  Solving for Ux, Initial residual = 0.00314273, Final residual = 0.00026207, No Iterations 6
smoothSolver:  Solving for Uy, Initial residual = 0.00570913, Final residual = 0.000479061, No Iterations 6
GAMG:  Solving for p, Initial residual = 0.00559197, Final residual = 0.000323485, No Iterations 3
time step continuity errors : sum local = 6.58755e-05, global = 8.10716e-18, cumulative = 2.0709e-17
ExecutionTime = 0.64 s  ClockTime = 1 s

Time = 47

smoothSolver:  Solving for Ux, Initial residual = 0.00308849, Final residual = 0.000257785, No Iterations 6
smoothSolver:  Solving for Uy, Initial residual = 0.00557166, Final residual = 0.000467731, No Iterations 6
GAMG:  Solving for p, Initial residual = 0.00545205, Final residual = 0.000317495, No Iterations 3
time step continuity errors : sum local = 6.54615e-05, global = -8.94864e-18, cumulative = 1.17603e-17
ExecutionTime = 0.66 s  ClockTime = 1 s

Time = 48

smoothSolver:  Solving for Ux, Initial residual = 0.0030362, Final residual = 0.000253701, No Iterations 6
smoothSolver:  Solving for Uy, Initial residual = 0.00544069, Final residual = 0.000456917, No Iterations 6
GAMG:  Solving for p, Initial residual = 0.005317, Final residual = 0.000467347, No Iterations 3
time step continuity errors : sum local = 9.10915e-05, global = -1.56103e-17, cumulative = -3.84994e-18
ExecutionTime = 0.67 s  ClockTime = 1 s

Time = 49

smoothSolver:  Solving for Ux, Initial residual = 0.00298621, Final residual = 0.000249664, No Iterations 6
smoothSolver:  Solving for Uy, Initial residual = 0.00531865, Final residual = 0.000446775, No Iterations 6
GAMG:  Solving for p, Initial residual = 0.0054005, Final residual = 0.000333783, No Iterations 3
time step continuity errors : sum local = 6.6099e-05, global = -4.52421e-18, cumulative = -8.37416e-18
ExecutionTime = 0.68 s  ClockTime = 1 s

Time = 50

smoothSolver:  Solving for Ux, Initial residual = 0.00293723, Final residual = 0.00024581, No Iterations 6
smoothSolver:  Solving for Uy, Initial residual = 0.00519963, Final residual = 0.000436963, No Iterations 6
GAMG:  Solving for p, Initial residual = 0.00501165, Final residual = 0.000308674, No Iterations 3
time step continuity errors : sum local = 6.1886e-05, global = -1.30284e-17, cumulative = -2.14026e-17
ExecutionTime = 0.71 s  ClockTime = 1 s

Time = 51

smoothSolver:  Solving for Ux, Initial residual = 0.00289235, Final residual = 0.000242371, No Iterations 6
smoothSolver:  Solving for Uy, Initial residual = 0.00508056, Final residual = 0.000427256, No Iterations 6
GAMG:  Solving for p, Initial residual = 0.0049299, Final residual = 0.000307064, No Iterations 3
time step continuity errors : sum local = 6.2227e-05, global = -2.12356e-17, cumulative = -4.26382e-17
ExecutionTime = 0.72 s  ClockTime = 1 s

Time = 52

smoothSolver:  Solving for Ux, Initial residual = 0.00284975, Final residual = 0.000239005, No Iterations 6
smoothSolver:  Solving for Uy, Initial residual = 0.00496692, Final residual = 0.000417895, No Iterations 6
GAMG:  Solving for p, Initial residual = 0.00482558, Final residual = 0.000303045, No Iterations 3
time step continuity errors : sum local = 6.21334e-05, global = 1.00061e-17, cumulative = -3.26321e-17
ExecutionTime = 0.74 s  ClockTime = 1 s

Time = 53

smoothSolver:  Solving for Ux, Initial residual = 0.0028089, Final residual = 0.000235745, No Iterations 6
smoothSolver:  Solving for Uy, Initial residual = 0.00485784, Final residual = 0.000408888, No Iterations 6
GAMG:  Solving for p, Initial residual = 0.00471185, Final residual = 0.000417313, No Iterations 3
time step continuity errors : sum local = 8.22576e-05, global = 4.13723e-18, cumulative = -2.84949e-17
ExecutionTime = 0.75 s  ClockTime = 1 s

Time = 54

smoothSolver:  Solving for Ux, Initial residual = 0.00276883, Final residual = 0.000232533, No Iterations 6
smoothSolver:  Solving for Uy, Initial residual = 0.0047558, Final residual = 0.000400395, No Iterations 6
GAMG:  Solving for p, Initial residual = 0.00476918, Final residual = 0.000314464, No Iterations 3
time step continuity errors : sum local = 6.24867e-05, global = -5.0769e-19, cumulative = -2.90026e-17
ExecutionTime = 0.76 s  ClockTime = 1 s

Time = 55

smoothSolver:  Solving for Ux, Initial residual = 0.00272858, Final residual = 0.000229383, No Iterations 6
smoothSolver:  Solving for Uy, Initial residual = 0.00465812, Final residual = 0.000392315, No Iterations 6
GAMG:  Solving for p, Initial residual = 0.0044615, Final residual = 0.000291854, No Iterations 3
time step continuity errors : sum local = 5.87153e-05, global = 7.51689e-18, cumulative = -2.14857e-17
ExecutionTime = 0.77 s  ClockTime = 1 s

Time = 56

smoothSolver:  Solving for Ux, Initial residual = 0.00269285, Final residual = 0.000226527, No Iterations 6
smoothSolver:  Solving for Uy, Initial residual = 0.00455939, Final residual = 0.000384235, No Iterations 6
GAMG:  Solving for p, Initial residual = 0.00438934, Final residual = 0.000289323, No Iterations 3
time step continuity errors : sum local = 5.88662e-05, global = 1.6983e-18, cumulative = -1.97874e-17
ExecutionTime = 0.79 s  ClockTime = 1 s

Time = 57

smoothSolver:  Solving for Ux, Initial residual = 0.00265802, Final residual = 0.000223802, No Iterations 6
smoothSolver:  Solving for Uy, Initial residual = 0.00446477, Final residual = 0.000376444, No Iterations 6
GAMG:  Solving for p, Initial residual = 0.004305, Final residual = 0.000285352, No Iterations 3
time step continuity errors : sum local = 5.87581e-05, global = 1.20271e-17, cumulative = -7.76032e-18
ExecutionTime = 0.8 s  ClockTime = 1 s

Time = 58

smoothSolver:  Solving for Ux, Initial residual = 0.00262361, Final residual = 0.000221102, No Iterations 6
smoothSolver:  Solving for Uy, Initial residual = 0.00437445, Final residual = 0.000368965, No Iterations 6
GAMG:  Solving for p, Initial residual = 0.00421131, Final residual = 0.000384341, No Iterations 3
time step continuity errors : sum local = 7.63706e-05, global = 6.76779e-18, cumulative = -9.9253e-19
ExecutionTime = 0.81 s  ClockTime = 1 s

Time = 59

smoothSolver:  Solving for Ux, Initial residual = 0.00259089, Final residual = 0.000218364, No Iterations 6
smoothSolver:  Solving for Uy, Initial residual = 0.00428967, Final residual = 0.00036186, No Iterations 6
GAMG:  Solving for p, Initial residual = 0.00426602, Final residual = 0.000295042, No Iterations 3
time step continuity errors : sum local = 5.90721e-05, global = 1.54621e-17, cumulative = 1.44695e-17
ExecutionTime = 0.82 s  ClockTime = 1 s

Time = 60

smoothSolver:  Solving for Ux, Initial residual = 0.00255745, Final residual = 0.00021572, No Iterations 6
smoothSolver:  Solving for Uy, Initial residual = 0.00420887, Final residual = 0.000355194, No Iterations 6
GAMG:  Solving for p, Initial residual = 0.00400575, Final residual = 0.00027329, No Iterations 3
time step continuity errors : sum local = 5.5413e-05, global = 1.02724e-17, cumulative = 2.47419e-17
ExecutionTime = 0.84 s  ClockTime = 1 s

Time = 61

smoothSolver:  Solving for Ux, Initial residual = 0.00252669, Final residual = 0.000213334, No Iterations 6
smoothSolver:  Solving for Uy, Initial residual = 0.00412648, Final residual = 0.000348431, No Iterations 6
GAMG:  Solving for p, Initial residual = 0.00394798, Final residual = 0.000270248, No Iterations 3
time step continuity errors : sum local = 5.54383e-05, global = 1.31581e-17, cumulative = 3.79e-17
ExecutionTime = 0.85 s  ClockTime = 1 s

Time = 62

smoothSolver:  Solving for Ux, Initial residual = 0.00249756, Final residual = 0.000210973, No Iterations 6
smoothSolver:  Solving for Uy, Initial residual = 0.00404772, Final residual = 0.000341883, No Iterations 6
GAMG:  Solving for p, Initial residual = 0.00388011, Final residual = 0.000266382, No Iterations 3
time step continuity errors : sum local = 5.53281e-05, global = -3.16653e-17, cumulative = 6.23478e-18
ExecutionTime = 0.87 s  ClockTime = 1 s

Time = 63

smoothSolver:  Solving for Ux, Initial residual = 0.00246897, Final residual = 0.000208657, No Iterations 6
smoothSolver:  Solving for Uy, Initial residual = 0.00397211, Final residual = 0.000335638, No Iterations 6
GAMG:  Solving for p, Initial residual = 0.0038049, Final residual = 0.000360429, No Iterations 3
time step continuity errors : sum local = 7.20676e-05, global = 1.03274e-17, cumulative = 1.65622e-17
ExecutionTime = 0.88 s  ClockTime = 1 s

Time = 64

smoothSolver:  Solving for Ux, Initial residual = 0.00244036, Final residual = 0.000206303, No Iterations 6
smoothSolver:  Solving for Uy, Initial residual = 0.00390087, Final residual = 0.000329664, No Iterations 6
GAMG:  Solving for p, Initial residual = 0.0038704, Final residual = 0.000275642, No Iterations 3
time step continuity errors : sum local = 5.56808e-05, global = 1.78602e-17, cumulative = 3.44224e-17
ExecutionTime = 0.89 s  ClockTime = 1 s

Time = 65

smoothSolver:  Solving for Ux, Initial residual = 0.00241099, Final residual = 0.000203976, No Iterations 6
smoothSolver:  Solving for Uy, Initial residual = 0.00383438, Final residual = 0.000324123, No Iterations 6
GAMG:  Solving for p, Initial residual = 0.00363413, Final residual = 0.000253872, No Iterations 3
time step continuity errors : sum local = 5.19675e-05, global = -8.56562e-19, cumulative = 3.35659e-17
ExecutionTime = 0.91 s  ClockTime = 1 s

Time = 66

smoothSolver:  Solving for Ux, Initial residual = 0.00238496, Final residual = 0.000201881, No Iterations 6
smoothSolver:  Solving for Uy, Initial residual = 0.00376497, Final residual = 0.000318438, No Iterations 6
GAMG:  Solving for p, Initial residual = 0.00358916, Final residual = 0.000250525, No Iterations 3
time step continuity errors : sum local = 5.19067e-05, global = 1.29448e-17, cumulative = 4.65107e-17
ExecutionTime = 0.92 s  ClockTime = 1 s

Time = 67

smoothSolver:  Solving for Ux, Initial residual = 0.00235958, Final residual = 0.000199825, No Iterations 6
smoothSolver:  Solving for Uy, Initial residual = 0.00369851, Final residual = 0.000312911, No Iterations 6
GAMG:  Solving for p, Initial residual = 0.00353514, Final residual = 0.000246983, No Iterations 3
time step continuity errors : sum local = 5.18312e-05, global = -1.4002e-17, cumulative = 3.25087e-17
ExecutionTime = 0.94 s  ClockTime = 1 s

Time = 68

smoothSolver:  Solving for Ux, Initial residual = 0.00233402, Final residual = 0.000197765, No Iterations 6
smoothSolver:  Solving for Uy, Initial residual = 0.00363505, Final residual = 0.000307622, No Iterations 6
GAMG:  Solving for p, Initial residual = 0.00347458, Final residual = 0.000242002, No Iterations 3
time step continuity errors : sum local = 5.14743e-05, global = -1.75532e-17, cumulative = 1.49555e-17
ExecutionTime = 0.95 s  ClockTime = 1 s

Time = 69

smoothSolver:  Solving for Ux, Initial residual = 0.00230903, Final residual = 0.000195709, No Iterations 6
smoothSolver:  Solving for Uy, Initial residual = 0.00357447, Final residual = 0.000302576, No Iterations 6
GAMG:  Solving for p, Initial residual = 0.00341412, Final residual = 0.000155019, No Iterations 4
time step continuity errors : sum local = 3.15254e-05, global = 8.87426e-18, cumulative = 2.38298e-17
ExecutionTime = 0.96 s  ClockTime = 1 s

Time = 70

smoothSolver:  Solving for Ux, Initial residual = 0.00228307, Final residual = 0.000193511, No Iterations 6
smoothSolver:  Solving for Uy, Initial residual = 0.00352296, Final residual = 0.000298131, No Iterations 6
GAMG:  Solving for p, Initial residual = 0.00326415, Final residual = 0.000221399, No Iterations 3
time step continuity errors : sum local = 4.54596e-05, global = -1.75987e-17, cumulative = 6.23107e-18
ExecutionTime = 0.97 s  ClockTime = 1 s

Time = 71

smoothSolver:  Solving for Ux, Initial residual = 0.0022595, Final residual = 0.000191675, No Iterations 6
smoothSolver:  Solving for Uy, Initial residual = 0.00346058, Final residual = 0.00029314, No Iterations 6
GAMG:  Solving for p, Initial residual = 0.00333953, Final residual = 0.0002379, No Iterations 3
time step continuity errors : sum local = 4.9374e-05, global = 1.45393e-17, cumulative = 2.07704e-17
ExecutionTime = 0.99 s  ClockTime = 1 s

Time = 72

smoothSolver:  Solving for Ux, Initial residual = 0.00223698, Final residual = 0.00018984, No Iterations 6
smoothSolver:  Solving for Uy, Initial residual = 0.00340431, Final residual = 0.00028839, No Iterations 6
GAMG:  Solving for p, Initial residual = 0.00326797, Final residual = 0.000231687, No Iterations 3
time step continuity errors : sum local = 4.87734e-05, global = 5.48666e-18, cumulative = 2.6257e-17
ExecutionTime = 1 s  ClockTime = 1 s

Time = 73

smoothSolver:  Solving for Ux, Initial residual = 0.00221426, Final residual = 0.000187952, No Iterations 6
smoothSolver:  Solving for Uy, Initial residual = 0.00335051, Final residual = 0.000283891, No Iterations 6
GAMG:  Solving for p, Initial residual = 0.00320242, Final residual = 0.00022423, No Iterations 3
time step continuity errors : sum local = 4.79196e-05, global = 5.08405e-18, cumulative = 3.13411e-17
ExecutionTime = 1.01 s  ClockTime = 1 s

Time = 74

smoothSolver:  Solving for Ux, Initial residual = 0.00219152, Final residual = 0.000186087, No Iterations 6
smoothSolver:  Solving for Uy, Initial residual = 0.00329898, Final residual = 0.000279582, No Iterations 6
GAMG:  Solving for p, Initial residual = 0.0031498, Final residual = 0.000144316, No Iterations 4
time step continuity errors : sum local = 2.95151e-05, global = -6.36148e-18, cumulative = 2.49796e-17
ExecutionTime = 1.02 s  ClockTime = 1 s

Time = 75

smoothSolver:  Solving for Ux, Initial residual = 0.00216758, Final residual = 0.000184054, No Iterations 6
smoothSolver:  Solving for Uy, Initial residual = 0.00325562, Final residual = 0.000275841, No Iterations 6
GAMG:  Solving for p, Initial residual = 0.0030176, Final residual = 0.000204239, No Iterations 3
time step continuity errors : sum local = 4.22043e-05, global = 1.3146e-17, cumulative = 3.81256e-17
ExecutionTime = 1.03 s  ClockTime = 1 s

Time = 76

smoothSolver:  Solving for Ux, Initial residual = 0.00214616, Final residual = 0.000182365, No Iterations 6
smoothSolver:  Solving for Uy, Initial residual = 0.00320177, Final residual = 0.000271524, No Iterations 6
GAMG:  Solving for p, Initial residual = 0.00309017, Final residual = 0.000219152, No Iterations 3
time step continuity errors : sum local = 4.58069e-05, global = -1.87941e-17, cumulative = 1.93315e-17
ExecutionTime = 1.05 s  ClockTime = 1 s

Time = 77

smoothSolver:  Solving for Ux, Initial residual = 0.00212571, Final residual = 0.000180658, No Iterations 6
smoothSolver:  Solving for Uy, Initial residual = 0.0031534, Final residual = 0.000267422, No Iterations 6
GAMG:  Solving for p, Initial residual = 0.00302787, Final residual = 0.000213378, No Iterations 3
time step continuity errors : sum local = 4.5276e-05, global = -1.22449e-18, cumulative = 1.8107e-17
ExecutionTime = 1.06 s  ClockTime = 1 s

Time = 78

smoothSolver:  Solving for Ux, Initial residual = 0.00210476, Final residual = 0.000178921, No Iterations 6
smoothSolver:  Solving for Uy, Initial residual = 0.00310712, Final residual = 0.000263538, No Iterations 6
GAMG:  Solving for p, Initial residual = 0.00297132, Final residual = 0.000206335, No Iterations 3
time step continuity errors : sum local = 4.4483e-05, global = -2.74915e-18, cumulative = 1.53579e-17
ExecutionTime = 1.07 s  ClockTime = 1 s

Time = 79

smoothSolver:  Solving for Ux, Initial residual = 0.00208366, Final residual = 0.000177184, No Iterations 6
smoothSolver:  Solving for Uy, Initial residual = 0.00306261, Final residual = 0.000259821, No Iterations 6
GAMG:  Solving for p, Initial residual = 0.00292649, Final residual = 0.000200978, No Iterations 3
time step continuity errors : sum local = 4.40043e-05, global = 1.64854e-17, cumulative = 3.18432e-17
ExecutionTime = 1.08 s  ClockTime = 1 s

Time = 80

smoothSolver:  Solving for Ux, Initial residual = 0.00206278, Final residual = 0.000175462, No Iterations 6
smoothSolver:  Solving for Uy, Initial residual = 0.00301946, Final residual = 0.000256205, No Iterations 6
GAMG:  Solving for p, Initial residual = 0.0028845, Final residual = 0.000135497, No Iterations 4
time step continuity errors : sum local = 2.82478e-05, global = -9.53018e-18, cumulative = 2.23131e-17
ExecutionTime = 1.1 s  ClockTime = 1 s

Time = 81

smoothSolver:  Solving for Ux, Initial residual = 0.0020409, Final residual = 0.00017355, No Iterations 6
smoothSolver:  Solving for Uy, Initial residual = 0.00298375, Final residual = 0.000253095, No Iterations 6
GAMG:  Solving for p, Initial residual = 0.00277619, Final residual = 0.000185082, No Iterations 3
time step continuity errors : sum local = 3.88921e-05, global = 8.30039e-18, cumulative = 3.06134e-17
ExecutionTime = 1.11 s  ClockTime = 1 s

Time = 82

smoothSolver:  Solving for Ux, Initial residual = 0.00202154, Final residual = 0.000172012, No Iterations 6
smoothSolver:  Solving for Uy, Initial residual = 0.00293731, Final residual = 0.000249356, No Iterations 6
GAMG:  Solving for p, Initial residual = 0.00283495, Final residual = 0.000197297, No Iterations 3
time step continuity errors : sum local = 4.19402e-05, global = 1.34731e-18, cumulative = 3.19608e-17
ExecutionTime = 1.12 s  ClockTime = 1 s

Time = 83

smoothSolver:  Solving for Ux, Initial residual = 0.00200255, Final residual = 0.000170437, No Iterations 6
smoothSolver:  Solving for Uy, Initial residual = 0.00289584, Final residual = 0.000245848, No Iterations 6
GAMG:  Solving for p, Initial residual = 0.00278143, Final residual = 0.000191988, No Iterations 3
time step continuity errors : sum local = 4.14697e-05, global = -9.57094e-18, cumulative = 2.23898e-17
ExecutionTime = 1.14 s  ClockTime = 1 s

Time = 84

smoothSolver:  Solving for Ux, Initial residual = 0.00198287, Final residual = 0.000168804, No Iterations 6
smoothSolver:  Solving for Uy, Initial residual = 0.00285648, Final residual = 0.000242543, No Iterations 6
GAMG:  Solving for p, Initial residual = 0.00273323, Final residual = 0.000185515, No Iterations 3
time step continuity errors : sum local = 4.07569e-05, global = 1.71249e-17, cumulative = 3.95147e-17
ExecutionTime = 1.15 s  ClockTime = 1 s

Time = 85

smoothSolver:  Solving for Ux, Initial residual = 0.00196333, Final residual = 0.000167165, No Iterations 6
smoothSolver:  Solving for Uy, Initial residual = 0.00281846, Final residual = 0.000239343, No Iterations 6
GAMG:  Solving for p, Initial residual = 0.00269416, Final residual = 0.000125243, No Iterations 4
time step continuity errors : sum local = 2.62238e-05, global = 6.62486e-18, cumulative = 4.61396e-17
ExecutionTime = 1.16 s  ClockTime = 1 s

Time = 86

smoothSolver:  Solving for Ux, Initial residual = 0.0019426, Final residual = 0.000165354, No Iterations 6
smoothSolver:  Solving for Uy, Initial residual = 0.00278715, Final residual = 0.000236607, No Iterations 6
GAMG:  Solving for p, Initial residual = 0.00259692, Final residual = 0.000170228, No Iterations 3
time step continuity errors : sum local = 3.59653e-05, global = -1.13158e-17, cumulative = 3.48237e-17
ExecutionTime = 1.18 s  ClockTime = 1 s

Time = 87

smoothSolver:  Solving for Ux, Initial residual = 0.00192443, Final residual = 0.000163903, No Iterations 6
smoothSolver:  Solving for Uy, Initial residual = 0.0027457, Final residual = 0.000233274, No Iterations 6
GAMG:  Solving for p, Initial residual = 0.00265136, Final residual = 0.000181212, No Iterations 3
time step continuity errors : sum local = 3.87696e-05, global = 4.14729e-18, cumulative = 3.8971e-17
ExecutionTime = 1.19 s  ClockTime = 1 s

Time = 88

smoothSolver:  Solving for Ux, Initial residual = 0.00190634, Final residual = 0.000162397, No Iterations 6
smoothSolver:  Solving for Uy, Initial residual = 0.00270901, Final residual = 0.000230167, No Iterations 6
GAMG:  Solving for p, Initial residual = 0.00260302, Final residual = 0.000176264, No Iterations 3
time step continuity errors : sum local = 3.83597e-05, global = 1.52937e-17, cumulative = 5.42647e-17
ExecutionTime = 1.2 s  ClockTime = 1 s

Time = 89

smoothSolver:  Solving for Ux, Initial residual = 0.00188759, Final residual = 0.000160835, No Iterations 6
smoothSolver:  Solving for Uy, Initial residual = 0.00267405, Final residual = 0.000227214, No Iterations 6
GAMG:  Solving for p, Initial residual = 0.00255947, Final residual = 0.00017022, No Iterations 3
time step continuity errors : sum local = 3.77168e-05, global = 9.75147e-19, cumulative = 5.52399e-17
ExecutionTime = 1.21 s  ClockTime = 1 s

Time = 90

smoothSolver:  Solving for Ux, Initial residual = 0.001869, Final residual = 0.000159266, No Iterations 6
smoothSolver:  Solving for Uy, Initial residual = 0.00263997, Final residual = 0.000224354, No Iterations 6
GAMG:  Solving for p, Initial residual = 0.00252406, Final residual = 0.000116271, No Iterations 4
time step continuity errors : sum local = 2.45291e-05, global = 4.03638e-18, cumulative = 5.92762e-17
ExecutionTime = 1.23 s  ClockTime = 2 s

Time = 91

smoothSolver:  Solving for Ux, Initial residual = 0.00184911, Final residual = 0.000157527, No Iterations 6
smoothSolver:  Solving for Uy, Initial residual = 0.00261213, Final residual = 0.000221911, No Iterations 6
GAMG:  Solving for p, Initial residual = 0.00243719, Final residual = 0.000156543, No Iterations 3
time step continuity errors : sum local = 3.333e-05, global = 2.52064e-17, cumulative = 8.44826e-17
ExecutionTime = 1.24 s  ClockTime = 2 s

Time = 92

smoothSolver:  Solving for Ux, Initial residual = 0.00183185, Final residual = 0.000156141, No Iterations 6
smoothSolver:  Solving for Uy, Initial residual = 0.00257464, Final residual = 0.000218892, No Iterations 6
GAMG:  Solving for p, Initial residual = 0.00248496, Final residual = 0.000166219, No Iterations 3
time step continuity errors : sum local = 3.58664e-05, global = -1.01877e-17, cumulative = 7.42949e-17
ExecutionTime = 1.25 s  ClockTime = 2 s

Time = 93

smoothSolver:  Solving for Ux, Initial residual = 0.00181447, Final residual = 0.000154686, No Iterations 6
smoothSolver:  Solving for Uy, Initial residual = 0.00254155, Final residual = 0.000216091, No Iterations 6
GAMG:  Solving for p, Initial residual = 0.00244095, Final residual = 0.000161589, No Iterations 3
time step continuity errors : sum local = 3.55053e-05, global = -1.82154e-17, cumulative = 5.60795e-17
ExecutionTime = 1.26 s  ClockTime = 2 s

Time = 94

smoothSolver:  Solving for Ux, Initial residual = 0.00179648, Final residual = 0.000153179, No Iterations 6
smoothSolver:  Solving for Uy, Initial residual = 0.00251006, Final residual = 0.000213425, No Iterations 6
GAMG:  Solving for p, Initial residual = 0.00240133, Final residual = 0.000108142, No Iterations 4
time step continuity errors : sum local = 2.27207e-05, global = 3.42863e-18, cumulative = 5.95081e-17
ExecutionTime = 1.28 s  ClockTime = 2 s

Time = 95

smoothSolver:  Solving for Ux, Initial residual = 0.00177719, Final residual = 0.000151492, No Iterations 6
smoothSolver:  Solving for Uy, Initial residual = 0.00248413, Final residual = 0.000211159, No Iterations 6
GAMG:  Solving for p, Initial residual = 0.0023163, Final residual = 0.000146401, No Iterations 3
time step continuity errors : sum local = 3.11291e-05, global = -1.0788e-17, cumulative = 4.87201e-17
ExecutionTime = 1.29 s  ClockTime = 2 s

Time = 96

smoothSolver:  Solving for Ux, Initial residual = 0.00176064, Final residual = 0.000150142, No Iterations 6
smoothSolver:  Solving for Uy, Initial residual = 0.00244948, Final residual = 0.000208348, No Iterations 6
GAMG:  Solving for p, Initial residual = 0.00236357, Final residual = 0.000155604, No Iterations 3
time step continuity errors : sum local = 3.35794e-05, global = 1.08685e-17, cumulative = 5.95886e-17
ExecutionTime = 1.3 s  ClockTime = 2 s

Time = 97

smoothSolver:  Solving for Ux, Initial residual = 0.00174383, Final residual = 0.000148724, No Iterations 6
smoothSolver:  Solving for Uy, Initial residual = 0.00241891, Final residual = 0.000205759, No Iterations 6
GAMG:  Solving for p, Initial residual = 0.0023223, Final residual = 0.000151307, No Iterations 3
time step continuity errors : sum local = 3.32835e-05, global = 1.7036e-18, cumulative = 6.12922e-17
ExecutionTime = 1.31 s  ClockTime = 2 s

Time = 98

smoothSolver:  Solving for Ux, Initial residual = 0.00172646, Final residual = 0.000147263, No Iterations 6
smoothSolver:  Solving for Uy, Initial residual = 0.00238973, Final residual = 0.000203293, No Iterations 6
GAMG:  Solving for p, Initial residual = 0.0022848, Final residual = 0.000228358, No Iterations 3
time step continuity errors : sum local = 4.7212e-05, global = -1.88904e-17, cumulative = 4.24018e-17
ExecutionTime = 1.33 s  ClockTime = 2 s

Time = 99

smoothSolver:  Solving for Ux, Initial residual = 0.00170962, Final residual = 0.000145814, No Iterations 6
smoothSolver:  Solving for Uy, Initial residual = 0.00236035, Final residual = 0.000200779, No Iterations 6
GAMG:  Solving for p, Initial residual = 0.00236803, Final residual = 0.000157895, No Iterations 3
time step continuity errors : sum local = 3.36547e-05, global = -1.94368e-17, cumulative = 2.2965e-17
ExecutionTime = 1.34 s  ClockTime = 2 s

Time = 100

smoothSolver:  Solving for Ux, Initial residual = 0.00169042, Final residual = 0.000144215, No Iterations 6
smoothSolver:  Solving for Uy, Initial residual = 0.00233637, Final residual = 0.000198762, No Iterations 6
GAMG:  Solving for p, Initial residual = 0.0022002, Final residual = 0.00014046, No Iterations 3
time step continuity errors : sum local = 3.0582e-05, global = 4.41357e-18, cumulative = 2.73786e-17
ExecutionTime = 1.37 s  ClockTime = 2 s

Time = 101

smoothSolver:  Solving for Ux, Initial residual = 0.00167425, Final residual = 0.000142853, No Iterations 6
smoothSolver:  Solving for Uy, Initial residual = 0.00230653, Final residual = 0.000196283, No Iterations 6
GAMG:  Solving for p, Initial residual = 0.00219169, Final residual = 0.000138043, No Iterations 3
time step continuity errors : sum local = 3.05935e-05, global = 2.31769e-17, cumulative = 5.05555e-17
ExecutionTime = 1.38 s  ClockTime = 2 s

Time = 102

smoothSolver:  Solving for Ux, Initial residual = 0.0016581, Final residual = 0.00014149, No Iterations 6
smoothSolver:  Solving for Uy, Initial residual = 0.00227792, Final residual = 0.000193872, No Iterations 6
GAMG:  Solving for p, Initial residual = 0.0021725, Final residual = 0.000214987, No Iterations 3
time step continuity errors : sum local = 4.4605e-05, global = 9.00343e-18, cumulative = 5.95589e-17
ExecutionTime = 1.39 s  ClockTime = 2 s

Time = 103

smoothSolver:  Solving for Ux, Initial residual = 0.00164213, Final residual = 0.000140108, No Iterations 6
smoothSolver:  Solving for Uy, Initial residual = 0.00224991, Final residual = 0.00019148, No Iterations 6
GAMG:  Solving for p, Initial residual = 0.00225585, Final residual = 0.000148016, No Iterations 3
time step continuity errors : sum local = 3.17052e-05, global = 8.9812e-18, cumulative = 6.85401e-17
ExecutionTime = 1.41 s  ClockTime = 2 s

Time = 104

smoothSolver:  Solving for Ux, Initial residual = 0.00162342, Final residual = 0.000138552, No Iterations 6
smoothSolver:  Solving for Uy, Initial residual = 0.00222759, Final residual = 0.000189597, No Iterations 6
GAMG:  Solving for p, Initial residual = 0.00209461, Final residual = 0.000131401, No Iterations 3
time step continuity errors : sum local = 2.87857e-05, global = 8.87214e-18, cumulative = 7.74123e-17
ExecutionTime = 1.42 s  ClockTime = 2 s

Time = 105

smoothSolver:  Solving for Ux, Initial residual = 0.0016076, Final residual = 0.000137232, No Iterations 6
smoothSolver:  Solving for Uy, Initial residual = 0.00219964, Final residual = 0.000187272, No Iterations 6
GAMG:  Solving for p, Initial residual = 0.00208719, Final residual = 0.000129045, No Iterations 3
time step continuity errors : sum local = 2.88024e-05, global = 9.00502e-19, cumulative = 7.83128e-17
ExecutionTime = 1.44 s  ClockTime = 2 s

Time = 106

smoothSolver:  Solving for Ux, Initial residual = 0.00159188, Final residual = 0.0001359, No Iterations 6
smoothSolver:  Solving for Uy, Initial residual = 0.00217284, Final residual = 0.00018501, No Iterations 6
GAMG:  Solving for p, Initial residual = 0.00206916, Final residual = 0.000203797, No Iterations 3
time step continuity errors : sum local = 4.24481e-05, global = 1.17849e-17, cumulative = 9.00977e-17
ExecutionTime = 1.45 s  ClockTime = 2 s

Time = 107

smoothSolver:  Solving for Ux, Initial residual = 0.00157649, Final residual = 0.000134555, No Iterations 6
smoothSolver:  Solving for Uy, Initial residual = 0.00214649, Final residual = 0.000182746, No Iterations 6
GAMG:  Solving for p, Initial residual = 0.00215077, Final residual = 0.000138823, No Iterations 3
time step continuity errors : sum local = 2.99124e-05, global = -2.30922e-18, cumulative = 8.77884e-17
ExecutionTime = 1.46 s  ClockTime = 2 s

Time = 108

smoothSolver:  Solving for Ux, Initial residual = 0.0015583, Final residual = 0.000133032, No Iterations 6
smoothSolver:  Solving for Uy, Initial residual = 0.00212568, Final residual = 0.000180986, No Iterations 6
GAMG:  Solving for p, Initial residual = 0.00199407, Final residual = 0.000122868, No Iterations 3
time step continuity errors : sum local = 2.7109e-05, global = -9.57147e-19, cumulative = 8.68313e-17
ExecutionTime = 1.48 s  ClockTime = 2 s

Time = 109

smoothSolver:  Solving for Ux, Initial residual = 0.00154304, Final residual = 0.000131755, No Iterations 6
smoothSolver:  Solving for Uy, Initial residual = 0.00209922, Final residual = 0.000178793, No Iterations 6
GAMG:  Solving for p, Initial residual = 0.00198778, Final residual = 0.000120636, No Iterations 3
time step continuity errors : sum local = 2.71393e-05, global = 1.27124e-17, cumulative = 9.95437e-17
ExecutionTime = 1.49 s  ClockTime = 2 s

Time = 110

smoothSolver:  Solving for Ux, Initial residual = 0.00152774, Final residual = 0.000130464, No Iterations 6
smoothSolver:  Solving for Uy, Initial residual = 0.00207393, Final residual = 0.000176662, No Iterations 6
GAMG:  Solving for p, Initial residual = 0.00197114, Final residual = 0.000193322, No Iterations 3
time step continuity errors : sum local = 4.04286e-05, global = 8.49706e-18, cumulative = 1.08041e-16
ExecutionTime = 1.5 s  ClockTime = 2 s

Time = 111

smoothSolver:  Solving for Ux, Initial residual = 0.00151274, Final residual = 0.000129164, No Iterations 6
smoothSolver:  Solving for Uy, Initial residual = 0.00204908, Final residual = 0.000174523, No Iterations 6
GAMG:  Solving for p, Initial residual = 0.00205121, Final residual = 0.000130322, No Iterations 3
time step continuity errors : sum local = 2.8254e-05, global = -1.55026e-17, cumulative = 9.25382e-17
ExecutionTime = 1.51 s  ClockTime = 2 s

Time = 112

smoothSolver:  Solving for Ux, Initial residual = 0.00149496, Final residual = 0.000127672, No Iterations 6
smoothSolver:  Solving for Uy, Initial residual = 0.00202965, Final residual = 0.000172873, No Iterations 6
GAMG:  Solving for p, Initial residual = 0.00189977, Final residual = 0.000114996, No Iterations 3
time step continuity errors : sum local = 2.55603e-05, global = -9.88143e-18, cumulative = 8.26567e-17
ExecutionTime = 1.53 s  ClockTime = 2 s

Time = 113

smoothSolver:  Solving for Ux, Initial residual = 0.00148021, Final residual = 0.000126426, No Iterations 6
smoothSolver:  Solving for Uy, Initial residual = 0.0020046, Final residual = 0.000170789, No Iterations 6
GAMG:  Solving for p, Initial residual = 0.00189398, Final residual = 0.000112872, No Iterations 3
time step continuity errors : sum local = 2.56003e-05, global = 8.24163e-18, cumulative = 9.08984e-17
ExecutionTime = 1.54 s  ClockTime = 2 s

Time = 114

smoothSolver:  Solving for Ux, Initial residual = 0.00146544, Final residual = 0.000125171, No Iterations 6
smoothSolver:  Solving for Uy, Initial residual = 0.00198063, Final residual = 0.000168769, No Iterations 6
GAMG:  Solving for p, Initial residual = 0.00187812, Final residual = 0.000183401, No Iterations 3
time step continuity errors : sum local = 3.85073e-05, global = 6.55577e-18, cumulative = 9.74541e-17
ExecutionTime = 1.56 s  ClockTime = 2 s

Time = 115

smoothSolver:  Solving for Ux, Initial residual = 0.00145102, Final residual = 0.000123914, No Iterations 6
smoothSolver:  Solving for Uy, Initial residual = 0.00195702, Final residual = 0.000166741, No Iterations 6
GAMG:  Solving for p, Initial residual = 0.00195646, Final residual = 0.000122441, No Iterations 3
time step continuity errors : sum local = 2.67103e-05, global = -4.24946e-18, cumulative = 9.32047e-17
ExecutionTime = 1.57 s  ClockTime = 2 s

Time = 116

smoothSolver:  Solving for Ux, Initial residual = 0.00143372, Final residual = 0.000122463, No Iterations 6
smoothSolver:  Solving for Uy, Initial residual = 0.00193876, Final residual = 0.000165188, No Iterations 6
GAMG:  Solving for p, Initial residual = 0.00180997, Final residual = 0.000107725, No Iterations 3
time step continuity errors : sum local = 2.41228e-05, global = 1.31952e-18, cumulative = 9.45242e-17
ExecutionTime = 1.58 s  ClockTime = 2 s

Time = 117

smoothSolver:  Solving for Ux, Initial residual = 0.00141938, Final residual = 0.000121263, No Iterations 6
smoothSolver:  Solving for Uy, Initial residual = 0.00191502, Final residual = 0.000163213, No Iterations 6
GAMG:  Solving for p, Initial residual = 0.00180498, Final residual = 0.000105692, No Iterations 3
time step continuity errors : sum local = 2.41685e-05, global = -2.25999e-18, cumulative = 9.22642e-17
ExecutionTime = 1.59 s  ClockTime = 2 s

Time = 118

smoothSolver:  Solving for Ux, Initial residual = 0.001405, Final residual = 0.000120047, No Iterations 6
smoothSolver:  Solving for Uy, Initial residual = 0.00189234, Final residual = 0.000161298, No Iterations 6
GAMG:  Solving for p, Initial residual = 0.00178997, Final residual = 0.000173991, No Iterations 3
time step continuity errors : sum local = 3.6674e-05, global = -5.67883e-18, cumulative = 8.65854e-17
ExecutionTime = 1.6 s  ClockTime = 2 s

Time = 119

smoothSolver:  Solving for Ux, Initial residual = 0.00139107, Final residual = 0.000118827, No Iterations 6
smoothSolver:  Solving for Uy, Initial residual = 0.00186991, Final residual = 0.00015937, No Iterations 6
GAMG:  Solving for p, Initial residual = 0.00186635, Final residual = 0.000115126, No Iterations 3
time step continuity errors : sum local = 2.52682e-05, global = 1.20575e-17, cumulative = 9.86429e-17
ExecutionTime = 1.62 s  ClockTime = 2 s

Time = 120

smoothSolver:  Solving for Ux, Initial residual = 0.00137426, Final residual = 0.00011741, No Iterations 6
smoothSolver:  Solving for Uy, Initial residual = 0.00185269, Final residual = 0.000157906, No Iterations 6
GAMG:  Solving for p, Initial residual = 0.00172472, Final residual = 0.000101022, No Iterations 3
time step continuity errors : sum local = 2.2788e-05, global = 8.37133e-18, cumulative = 1.07014e-16
ExecutionTime = 1.63 s  ClockTime = 2 s

Time = 121

smoothSolver:  Solving for Ux, Initial residual = 0.00136044, Final residual = 0.000116246, No Iterations 6
smoothSolver:  Solving for Uy, Initial residual = 0.00183011, Final residual = 0.000156019, No Iterations 6
GAMG:  Solving for p, Initial residual = 0.00172035, Final residual = 0.000162024, No Iterations 3
time step continuity errors : sum local = 3.40606e-05, global = 5.06737e-18, cumulative = 1.12082e-16
ExecutionTime = 1.64 s  ClockTime = 2 s

Time = 122

smoothSolver:  Solving for Ux, Initial residual = 0.0013472, Final residual = 0.000115097, No Iterations 6
smoothSolver:  Solving for Uy, Initial residual = 0.00180766, Final residual = 0.000154102, No Iterations 6
GAMG:  Solving for p, Initial residual = 0.00179388, Final residual = 0.000109514, No Iterations 3
time step continuity errors : sum local = 2.39021e-05, global = -2.2187e-18, cumulative = 1.09863e-16
ExecutionTime = 1.65 s  ClockTime = 2 s

Time = 123

smoothSolver:  Solving for Ux, Initial residual = 0.00133112, Final residual = 0.000113743, No Iterations 6
smoothSolver:  Solving for Uy, Initial residual = 0.00179063, Final residual = 0.000152646, No Iterations 6
GAMG:  Solving for p, Initial residual = 0.00166574, Final residual = 9.69264e-05, No Iterations 3
time step continuity errors : sum local = 2.17383e-05, global = -1.63112e-17, cumulative = 9.35517e-17
ExecutionTime = 1.66 s  ClockTime = 2 s

Time = 124

smoothSolver:  Solving for Ux, Initial residual = 0.00131755, Final residual = 0.000112603, No Iterations 6
smoothSolver:  Solving for Uy, Initial residual = 0.00176902, Final residual = 0.000150846, No Iterations 6
GAMG:  Solving for p, Initial residual = 0.00166106, Final residual = 9.50833e-05, No Iterations 3
time step continuity errors : sum local = 2.18156e-05, global = -9.35071e-18, cumulative = 8.4201e-17
ExecutionTime = 1.67 s  ClockTime = 2 s

Time = 125

smoothSolver:  Solving for Ux, Initial residual = 0.00130389, Final residual = 0.000111448, No Iterations 6
smoothSolver:  Solving for Uy, Initial residual = 0.00174838, Final residual = 0.000149102, No Iterations 6
GAMG:  Solving for p, Initial residual = 0.00164715, Final residual = 0.000157445, No Iterations 3
time step continuity errors : sum local = 3.33126e-05, global = 4.00276e-18, cumulative = 8.82037e-17
ExecutionTime = 1.69 s  ClockTime = 2 s

Time = 126

smoothSolver:  Solving for Ux, Initial residual = 0.00129073, Final residual = 0.000110298, No Iterations 6
smoothSolver:  Solving for Uy, Initial residual = 0.00172784, Final residual = 0.000147335, No Iterations 6
GAMG:  Solving for p, Initial residual = 0.00171662, Final residual = 0.000103594, No Iterations 3
time step continuity errors : sum local = 2.28671e-05, global = -4.22087e-18, cumulative = 8.39829e-17
ExecutionTime = 1.7 s  ClockTime = 2 s

Time = 127

smoothSolver:  Solving for Ux, Initial residual = 0.00127485, Final residual = 0.000108957, No Iterations 6
smoothSolver:  Solving for Uy, Initial residual = 0.00171217, Final residual = 0.000145993, No Iterations 6
GAMG:  Solving for p, Initial residual = 0.00158698, Final residual = 9.07516e-05, No Iterations 3
time step continuity errors : sum local = 2.06226e-05, global = -7.24372e-18, cumulative = 7.67392e-17
ExecutionTime = 1.71 s  ClockTime = 2 s

Time = 128

smoothSolver:  Solving for Ux, Initial residual = 0.00126184, Final residual = 0.000107858, No Iterations 6
smoothSolver:  Solving for Uy, Initial residual = 0.00169148, Final residual = 0.000144262, No Iterations 6
GAMG:  Solving for p, Initial residual = 0.00158299, Final residual = 0.000147369, No Iterations 3
time step continuity errors : sum local = 3.11303e-05, global = -1.67612e-17, cumulative = 5.9978e-17
ExecutionTime = 1.73 s  ClockTime = 2 s

Time = 129

smoothSolver:  Solving for Ux, Initial residual = 0.0012494, Final residual = 0.000106775, No Iterations 6
smoothSolver:  Solving for Uy, Initial residual = 0.00167084, Final residual = 0.000142501, No Iterations 6
GAMG:  Solving for p, Initial residual = 0.0016515, Final residual = 9.86997e-05, No Iterations 3
time step continuity errors : sum local = 2.16999e-05, global = 1.38305e-17, cumulative = 7.38084e-17
ExecutionTime = 1.74 s  ClockTime = 2 s

Time = 130

smoothSolver:  Solving for Ux, Initial residual = 0.00123421, Final residual = 0.000105494, No Iterations 6
smoothSolver:  Solving for Uy, Initial residual = 0.00165529, Final residual = 0.000141169, No Iterations 6
GAMG:  Solving for p, Initial residual = 0.00153246, Final residual = 8.71053e-05, No Iterations 3
time step continuity errors : sum local = 1.97137e-05, global = -2.7645e-18, cumulative = 7.10439e-17
ExecutionTime = 1.75 s  ClockTime = 2 s

Time = 131

smoothSolver:  Solving for Ux, Initial residual = 0.00122147, Final residual = 0.000104422, No Iterations 6
smoothSolver:  Solving for Uy, Initial residual = 0.00163542, Final residual = 0.000139508, No Iterations 6
GAMG:  Solving for p, Initial residual = 0.00152844, Final residual = 8.53971e-05, No Iterations 3
time step continuity errors : sum local = 1.97976e-05, global = 1.32365e-17, cumulative = 8.42804e-17
ExecutionTime = 1.77 s  ClockTime = 2 s

Time = 132

smoothSolver:  Solving for Ux, Initial residual = 0.00120864, Final residual = 0.000103334, No Iterations 6
smoothSolver:  Solving for Uy, Initial residual = 0.00161645, Final residual = 0.0001379, No Iterations 6
GAMG:  Solving for p, Initial residual = 0.00151564, Final residual = 0.000143503, No Iterations 3
time step continuity errors : sum local = 3.05294e-05, global = 5.17961e-18, cumulative = 8.946e-17
ExecutionTime = 1.78 s  ClockTime = 2 s

Time = 133

smoothSolver:  Solving for Ux, Initial residual = 0.00119629, Final residual = 0.000102255, No Iterations 6
smoothSolver:  Solving for Uy, Initial residual = 0.00159751, Final residual = 0.000136273, No Iterations 6
GAMG:  Solving for p, Initial residual = 0.00158061, Final residual = 9.34984e-05, No Iterations 3
time step continuity errors : sum local = 2.08139e-05, global = 1.00516e-17, cumulative = 9.95116e-17
ExecutionTime = 1.79 s  ClockTime = 2 s

Time = 134

smoothSolver:  Solving for Ux, Initial residual = 0.00118128, Final residual = 0.000100991, No Iterations 6
smoothSolver:  Solving for Uy, Initial residual = 0.00158316, Final residual = 0.000135042, No Iterations 6
GAMG:  Solving for p, Initial residual = 0.00146026, Final residual = 8.16403e-05, No Iterations 3
time step continuity errors : sum local = 1.87442e-05, global = -1.93489e-17, cumulative = 8.01628e-17
ExecutionTime = 1.8 s  ClockTime = 2 s

Time = 135

smoothSolver:  Solving for Ux, Initial residual = 0.00116906, Final residual = 9.99606e-05, No Iterations 6
smoothSolver:  Solving for Uy, Initial residual = 0.0015641, Final residual = 0.000133447, No Iterations 6
GAMG:  Solving for p, Initial residual = 0.00145677, Final residual = 0.000134602, No Iterations 3
time step continuity errors : sum local = 2.85904e-05, global = 3.05249e-18, cumulative = 8.32153e-17
ExecutionTime = 1.81 s  ClockTime = 2 s

Time = 136

smoothSolver:  Solving for Ux, Initial residual = 0.00115742, Final residual = 9.89422e-05, No Iterations 6
smoothSolver:  Solving for Uy, Initial residual = 0.00154507, Final residual = 0.000131821, No Iterations 6
GAMG:  Solving for p, Initial residual = 0.00152104, Final residual = 8.92243e-05, No Iterations 3
time step continuity errors : sum local = 1.97818e-05, global = -1.00718e-17, cumulative = 7.31435e-17
ExecutionTime = 1.82 s  ClockTime = 2 s

Time = 137

smoothSolver:  Solving for Ux, Initial residual = 0.0011431, Final residual = 9.77313e-05, No Iterations 6
smoothSolver:  Solving for Uy, Initial residual = 0.00153082, Final residual = 0.000130597, No Iterations 6
GAMG:  Solving for p, Initial residual = 0.00141027, Final residual = 7.8475e-05, No Iterations 3
time step continuity errors : sum local = 1.79416e-05, global = -7.28872e-18, cumulative = 6.58548e-17
ExecutionTime = 1.84 s  ClockTime = 2 s

Time = 138

smoothSolver:  Solving for Ux, Initial residual = 0.00113118, Final residual = 9.67248e-05, No Iterations 6
smoothSolver:  Solving for Uy, Initial residual = 0.00151249, Final residual = 0.000129061, No Iterations 6
GAMG:  Solving for p, Initial residual = 0.00140666, Final residual = 0.000128636, No Iterations 3
time step continuity errors : sum local = 2.73236e-05, global = -4.87891e-18, cumulative = 6.09759e-17
ExecutionTime = 1.85 s  ClockTime = 2 s

Time = 139

smoothSolver:  Solving for Ux, Initial residual = 0.0011198, Final residual = 9.5734e-05, No Iterations 6
smoothSolver:  Solving for Uy, Initial residual = 0.00149411, Final residual = 0.000127494, No Iterations 6
GAMG:  Solving for p, Initial residual = 0.00146683, Final residual = 8.54975e-05, No Iterations 3
time step continuity errors : sum local = 1.89542e-05, global = 1.16737e-17, cumulative = 7.26496e-17
ExecutionTime = 1.87 s  ClockTime = 2 s

Time = 140

smoothSolver:  Solving for Ux, Initial residual = 0.00110588, Final residual = 9.45585e-05, No Iterations 6
smoothSolver:  Solving for Uy, Initial residual = 0.00148037, Final residual = 0.000126307, No Iterations 6
GAMG:  Solving for p, Initial residual = 0.00136149, Final residual = 7.52759e-05, No Iterations 3
time step continuity errors : sum local = 1.72164e-05, global = 1.5956e-18, cumulative = 7.42452e-17
ExecutionTime = 1.87 s  ClockTime = 2 s

Time = 141

smoothSolver:  Solving for Ux, Initial residual = 0.00109426, Final residual = 9.35797e-05, No Iterations 6
smoothSolver:  Solving for Uy, Initial residual = 0.0014627, Final residual = 0.000124822, No Iterations 6
GAMG:  Solving for p, Initial residual = 0.00135792, Final residual = 0.000123427, No Iterations 3
time step continuity errors : sum local = 2.62484e-05, global = -5.763e-18, cumulative = 6.84822e-17
ExecutionTime = 1.89 s  ClockTime = 2 s

Time = 142

smoothSolver:  Solving for Ux, Initial residual = 0.00108316, Final residual = 9.26162e-05, No Iterations 6
smoothSolver:  Solving for Uy, Initial residual = 0.00144493, Final residual = 0.000123306, No Iterations 6
GAMG:  Solving for p, Initial residual = 0.00141549, Final residual = 8.1984e-05, No Iterations 3
time step continuity errors : sum local = 1.82058e-05, global = 1.67705e-17, cumulative = 8.52526e-17
ExecutionTime = 1.9 s  ClockTime = 2 s

Time = 143

smoothSolver:  Solving for Ux, Initial residual = 0.00106964, Final residual = 9.14722e-05, No Iterations 6
smoothSolver:  Solving for Uy, Initial residual = 0.00143165, Final residual = 0.000122158, No Iterations 6
GAMG:  Solving for p, Initial residual = 0.00131435, Final residual = 7.21699e-05, No Iterations 3
time step continuity errors : sum local = 1.65428e-05, global = 2.41881e-18, cumulative = 8.76714e-17
ExecutionTime = 1.92 s  ClockTime = 2 s

Time = 144

smoothSolver:  Solving for Ux, Initial residual = 0.00105837, Final residual = 9.05196e-05, No Iterations 6
smoothSolver:  Solving for Uy, Initial residual = 0.00141456, Final residual = 0.000120726, No Iterations 6
GAMG:  Solving for p, Initial residual = 0.00131087, Final residual = 0.00011868, No Iterations 3
time step continuity errors : sum local = 2.52816e-05, global = 1.21232e-17, cumulative = 9.97946e-17
ExecutionTime = 1.92 s  ClockTime = 2 s

Time = 145

smoothSolver:  Solving for Ux, Initial residual = 0.00104764, Final residual = 8.95825e-05, No Iterations 6
smoothSolver:  Solving for Uy, Initial residual = 0.00139739, Final residual = 0.000119263, No Iterations 6
GAMG:  Solving for p, Initial residual = 0.00136629, Final residual = 7.86673e-05, No Iterations 3
time step continuity errors : sum local = 1.75126e-05, global = 1.02795e-17, cumulative = 1.10074e-16
ExecutionTime = 1.94 s  ClockTime = 2 s

Time = 146

smoothSolver:  Solving for Ux, Initial residual = 0.00103452, Final residual = 8.84685e-05, No Iterations 6
smoothSolver:  Solving for Uy, Initial residual = 0.00138452, Final residual = 0.000118152, No Iterations 6
GAMG:  Solving for p, Initial residual = 0.00126867, Final residual = 6.91973e-05, No Iterations 3
time step continuity errors : sum local = 1.59102e-05, global = -2.29228e-19, cumulative = 1.09845e-16
ExecutionTime = 1.96 s  ClockTime = 2 s

Time = 147

smoothSolver:  Solving for Ux, Initial residual = 0.00102358, Final residual = 8.75424e-05, No Iterations 6
smoothSolver:  Solving for Uy, Initial residual = 0.001368, Final residual = 0.000116764, No Iterations 6
GAMG:  Solving for p, Initial residual = 0.00126529, Final residual = 0.000114249, No Iterations 3
time step continuity errors : sum local = 2.43837e-05, global = 5.39031e-18, cumulative = 1.15235e-16
ExecutionTime = 1.97 s  ClockTime = 2 s

Time = 148

smoothSolver:  Solving for Ux, Initial residual = 0.00101317, Final residual = 8.66343e-05, No Iterations 6
smoothSolver:  Solving for Uy, Initial residual = 0.00135136, Final residual = 0.000115346, No Iterations 6
GAMG:  Solving for p, Initial residual = 0.00131902, Final residual = 7.5528e-05, No Iterations 3
time step continuity errors : sum local = 1.68605e-05, global = -1.42378e-17, cumulative = 1.00997e-16
ExecutionTime = 1.98 s  ClockTime = 2 s

Time = 149

smoothSolver:  Solving for Ux, Initial residual = 0.00100041, Final residual = 8.55533e-05, No Iterations 6
smoothSolver:  Solving for Uy, Initial residual = 0.00133896, Final residual = 0.000114268, No Iterations 6
GAMG:  Solving for p, Initial residual = 0.00122451, Final residual = 6.63683e-05, No Iterations 3
time step continuity errors : sum local = 1.53114e-05, global = 2.30597e-17, cumulative = 1.24057e-16
ExecutionTime = 1.99 s  ClockTime = 2 s

Time = 150

smoothSolver:  Solving for Ux, Initial residual = 0.000989773, Final residual = 8.46566e-05, No Iterations 6
smoothSolver:  Solving for Uy, Initial residual = 0.00132297, Final residual = 0.000112923, No Iterations 6
GAMG:  Solving for p, Initial residual = 0.00122132, Final residual = 0.000110051, No Iterations 3
time step continuity errors : sum local = 2.35332e-05, global = 8.19107e-18, cumulative = 1.32248e-16
ExecutionTime = 2.03 s  ClockTime = 2 s

Time = 151

smoothSolver:  Solving for Ux, Initial residual = 0.00097965, Final residual = 8.37758e-05, No Iterations 6
smoothSolver:  Solving for Uy, Initial residual = 0.00130685, Final residual = 0.000111547, No Iterations 6
GAMG:  Solving for p, Initial residual = 0.00127347, Final residual = 7.2557e-05, No Iterations 3
time step continuity errors : sum local = 1.62438e-05, global = 6.38398e-18, cumulative = 1.38632e-16
ExecutionTime = 2.04 s  ClockTime = 2 s

Time = 152

smoothSolver:  Solving for Ux, Initial residual = 0.000967248, Final residual = 8.27248e-05, No Iterations 6
smoothSolver:  Solving for Uy, Initial residual = 0.00129484, Final residual = 0.000110505, No Iterations 6
GAMG:  Solving for p, Initial residual = 0.001182, Final residual = 6.36804e-05, No Iterations 3
time step continuity errors : sum local = 1.47425e-05, global = -8.05634e-18, cumulative = 1.30576e-16
ExecutionTime = 2.05 s  ClockTime = 2 s

Time = 153

smoothSolver:  Solving for Ux, Initial residual = 0.000956928, Final residual = 8.18546e-05, No Iterations 6
smoothSolver:  Solving for Uy, Initial residual = 0.00127935, Final residual = 0.000109202, No Iterations 6
GAMG:  Solving for p, Initial residual = 0.0011789, Final residual = 0.000106037, No Iterations 3
time step continuity errors : sum local = 2.27193e-05, global = -6.91391e-19, cumulative = 1.29884e-16
ExecutionTime = 2.06 s  ClockTime = 2 s

Time = 154

smoothSolver:  Solving for Ux, Initial residual = 0.000947137, Final residual = 8.09998e-05, No Iterations 6
smoothSolver:  Solving for Uy, Initial residual = 0.00126372, Final residual = 0.00010787, No Iterations 6
GAMG:  Solving for p, Initial residual = 0.00122951, Final residual = 6.97313e-05, No Iterations 3
time step continuity errors : sum local = 1.56561e-05, global = 2.22833e-17, cumulative = 1.52168e-16
ExecutionTime = 2.07 s  ClockTime = 2 s

Time = 155

smoothSolver:  Solving for Ux, Initial residual = 0.000935117, Final residual = 7.99781e-05, No Iterations 6
smoothSolver:  Solving for Uy, Initial residual = 0.00125208, Final residual = 0.000106861, No Iterations 6
GAMG:  Solving for p, Initial residual = 0.00114102, Final residual = 6.11316e-05, No Iterations 3
time step continuity errors : sum local = 1.42015e-05, global = 2.68848e-17, cumulative = 1.79053e-16
ExecutionTime = 2.09 s  ClockTime = 2 s

Time = 156

smoothSolver:  Solving for Ux, Initial residual = 0.000925141, Final residual = 7.91333e-05, No Iterations 6
smoothSolver:  Solving for Uy, Initial residual = 0.00123707, Final residual = 0.000105599, No Iterations 6
GAMG:  Solving for p, Initial residual = 0.00113802, Final residual = 0.000102195, No Iterations 3
time step continuity errors : sum local = 2.19384e-05, global = 7.01026e-18, cumulative = 1.86063e-16
ExecutionTime = 2.1 s  ClockTime = 2 s

Time = 157

smoothSolver:  Solving for Ux, Initial residual = 0.00091566, Final residual = 7.83036e-05, No Iterations 6
smoothSolver:  Solving for Uy, Initial residual = 0.00122193, Final residual = 0.00010431, No Iterations 6
GAMG:  Solving for p, Initial residual = 0.00118714, Final residual = 6.70432e-05, No Iterations 3
time step continuity errors : sum local = 1.5095e-05, global = -3.62715e-17, cumulative = 1.49791e-16
ExecutionTime = 2.11 s  ClockTime = 2 s

Time = 158

smoothSolver:  Solving for Ux, Initial residual = 0.000903998, Final residual = 7.73117e-05, No Iterations 6
smoothSolver:  Solving for Uy, Initial residual = 0.00121066, Final residual = 0.00010333, No Iterations 6
GAMG:  Solving for p, Initial residual = 0.00110138, Final residual = 5.87087e-05, No Iterations 3
time step continuity errors : sum local = 1.36848e-05, global = -2.44914e-17, cumulative = 1.253e-16
ExecutionTime = 2.12 s  ClockTime = 2 s

Time = 159

smoothSolver:  Solving for Ux, Initial residual = 0.000894318, Final residual = 7.6494e-05, No Iterations 6
smoothSolver:  Solving for Uy, Initial residual = 0.00119614, Final residual = 0.000102108, No Iterations 6
GAMG:  Solving for p, Initial residual = 0.0010985, Final residual = 9.85193e-05, No Iterations 3
time step continuity errors : sum local = 2.11889e-05, global = -1.67331e-17, cumulative = 1.08567e-16
ExecutionTime = 2.13 s  ClockTime = 2 s

Time = 160

smoothSolver:  Solving for Ux, Initial residual = 0.00088513, Final residual = 7.56917e-05, No Iterations 6
smoothSolver:  Solving for Uy, Initial residual = 0.00118151, Final residual = 0.000100859, No Iterations 6
GAMG:  Solving for p, Initial residual = 0.00114623, Final residual = 6.44872e-05, No Iterations 3
time step continuity errors : sum local = 1.4559e-05, global = 3.05117e-17, cumulative = 1.39078e-16
ExecutionTime = 2.15 s  ClockTime = 2 s

Time = 161

smoothSolver:  Solving for Ux, Initial residual = 0.000873809, Final residual = 7.47308e-05, No Iterations 6
smoothSolver:  Solving for Uy, Initial residual = 0.00117059, Final residual = 9.99067e-05, No Iterations 6
GAMG:  Solving for p, Initial residual = 0.00106319, Final residual = 5.64072e-05, No Iterations 3
time step continuity errors : sum local = 1.31913e-05, global = 1.19283e-17, cumulative = 1.51007e-16
ExecutionTime = 2.17 s  ClockTime = 2 s

Time = 162

smoothSolver:  Solving for Ux, Initial residual = 0.000864427, Final residual = 7.39387e-05, No Iterations 6
smoothSolver:  Solving for Uy, Initial residual = 0.00115652, Final residual = 9.87221e-05, No Iterations 6
GAMG:  Solving for p, Initial residual = 0.00106042, Final residual = 9.49921e-05, No Iterations 3
time step continuity errors : sum local = 2.04673e-05, global = 1.32307e-17, cumulative = 1.64237e-16
ExecutionTime = 2.18 s  ClockTime = 3 s

Time = 163

smoothSolver:  Solving for Ux, Initial residual = 0.000855523, Final residual = 7.31619e-05, No Iterations 6
smoothSolver:  Solving for Uy, Initial residual = 0.00114233, Final residual = 9.75114e-05, No Iterations 6
GAMG:  Solving for p, Initial residual = 0.00110662, Final residual = 6.2054e-05, No Iterations 3
time step continuity errors : sum local = 1.40464e-05, global = 6.95626e-18, cumulative = 1.71194e-16
ExecutionTime = 2.19 s  ClockTime = 3 s

Time = 164

smoothSolver:  Solving for Ux, Initial residual = 0.000844537, Final residual = 7.223e-05, No Iterations 6
smoothSolver:  Solving for Uy, Initial residual = 0.00113174, Final residual = 9.65906e-05, No Iterations 6
GAMG:  Solving for p, Initial residual = 0.00102631, Final residual = 5.422e-05, No Iterations 3
time step continuity errors : sum local = 1.27197e-05, global = 3.3696e-18, cumulative = 1.74563e-16
ExecutionTime = 2.21 s  ClockTime = 3 s

Time = 165

smoothSolver:  Solving for Ux, Initial residual = 0.000835449, Final residual = 7.14629e-05, No Iterations 6
smoothSolver:  Solving for Uy, Initial residual = 0.00111809, Final residual = 9.54424e-05, No Iterations 6
GAMG:  Solving for p, Initial residual = 0.00102361, Final residual = 9.16064e-05, No Iterations 3
time step continuity errors : sum local = 1.97725e-05, global = -7.57459e-18, cumulative = 1.66989e-16
ExecutionTime = 2.22 s  ClockTime = 3 s

Time = 166

smoothSolver:  Solving for Ux, Initial residual = 0.000826847, Final residual = 7.07096e-05, No Iterations 6
smoothSolver:  Solving for Uy, Initial residual = 0.00110433, Final residual = 9.42682e-05, No Iterations 6
GAMG:  Solving for p, Initial residual = 0.00106832, Final residual = 5.97346e-05, No Iterations 3
time step continuity errors : sum local = 1.35557e-05, global = 1.05757e-17, cumulative = 1.77564e-16
ExecutionTime = 2.23 s  ClockTime = 3 s

Time = 167

smoothSolver:  Solving for Ux, Initial residual = 0.000816203, Final residual = 6.98059e-05, No Iterations 6
smoothSolver:  Solving for Uy, Initial residual = 0.00109405, Final residual = 9.33752e-05, No Iterations 6
GAMG:  Solving for p, Initial residual = 0.00099072, Final residual = 5.21417e-05, No Iterations 3
time step continuity errors : sum local = 1.22692e-05, global = 1.30848e-17, cumulative = 1.90649e-16
ExecutionTime = 2.24 s  ClockTime = 3 s

Time = 168

smoothSolver:  Solving for Ux, Initial residual = 0.000807416, Final residual = 6.90623e-05, No Iterations 6
smoothSolver:  Solving for Uy, Initial residual = 0.00108082, Final residual = 9.22616e-05, No Iterations 6
[...]

Time = 1959

smoothSolver:  Solving for Ux, Initial residual = 1.53152e-06, Final residual = 1.53152e-06, No Iterations 0
smoothSolver:  Solving for Uy, Initial residual = 2.00052e-06, Final residual = 2.00052e-06, No Iterations 0
GAMG:  Solving for p, Initial residual = 5.17668e-07, Final residual = 5.17668e-07, No Iterations 0
time step continuity errors : sum local = 1.21847e-07, global = -4.24603e-18, cumulative = 1.62449e-15
ExecutionTime = 19.02 s  ClockTime = 20 s

Time = 1960

smoothSolver:  Solving for Ux, Initial residual = 1.53089e-06, Final residual = 1.53089e-06, No Iterations 0
smoothSolver:  Solving for Uy, Initial residual = 1.99535e-06, Final residual = 1.99535e-06, No Iterations 0
GAMG:  Solving for p, Initial residual = 6.88123e-07, Final residual = 6.88123e-07, No Iterations 0
time step continuity errors : sum local = 1.59528e-07, global = -7.97814e-18, cumulative = 1.61651e-15
ExecutionTime = 19.03 s  ClockTime = 20 s

Time = 1961

smoothSolver:  Solving for Ux, Initial residual = 1.53074e-06, Final residual = 1.53074e-06, No Iterations 0
smoothSolver:  Solving for Uy, Initial residual = 1.99082e-06, Final residual = 1.99082e-06, No Iterations 0
GAMG:  Solving for p, Initial residual = 8.80295e-07, Final residual = 8.80295e-07, No Iterations 0
time step continuity errors : sum local = 2.02023e-07, global = -2.09816e-17, cumulative = 1.59553e-15
ExecutionTime = 19.04 s  ClockTime = 20 s

Time = 1962

smoothSolver:  Solving for Ux, Initial residual = 1.53058e-06, Final residual = 1.53058e-06, No Iterations 0
smoothSolver:  Solving for Uy, Initial residual = 1.98636e-06, Final residual = 1.98636e-06, No Iterations 0
GAMG:  Solving for p, Initial residual = 1.09232e-06, Final residual = 3.68734e-07, No Iterations 1
time step continuity errors : sum local = 8.94781e-08, global = -1.51705e-20, cumulative = 1.59552e-15
ExecutionTime = 19.05 s  ClockTime = 20 s

Time = 1963

smoothSolver:  Solving for Ux, Initial residual = 1.52353e-06, Final residual = 1.52353e-06, No Iterations 0
smoothSolver:  Solving for Uy, Initial residual = 1.99013e-06, Final residual = 1.99013e-06, No Iterations 0
GAMG:  Solving for p, Initial residual = 5.14368e-07, Final residual = 5.14368e-07, No Iterations 0
time step continuity errors : sum local = 1.21498e-07, global = 1.89037e-18, cumulative = 1.59741e-15
ExecutionTime = 19.06 s  ClockTime = 20 s

Time = 1964

smoothSolver:  Solving for Ux, Initial residual = 1.52291e-06, Final residual = 1.52291e-06, No Iterations 0
smoothSolver:  Solving for Uy, Initial residual = 1.98499e-06, Final residual = 1.98499e-06, No Iterations 0
GAMG:  Solving for p, Initial residual = 6.83932e-07, Final residual = 6.83932e-07, No Iterations 0
time step continuity errors : sum local = 1.58981e-07, global = 7.51019e-18, cumulative = 1.60492e-15
ExecutionTime = 19.07 s  ClockTime = 21 s

Time = 1965

smoothSolver:  Solving for Ux, Initial residual = 1.52276e-06, Final residual = 1.52276e-06, No Iterations 0
smoothSolver:  Solving for Uy, Initial residual = 1.98048e-06, Final residual = 1.98048e-06, No Iterations 0
GAMG:  Solving for p, Initial residual = 8.75079e-07, Final residual = 8.75079e-07, No Iterations 0
time step continuity errors : sum local = 2.0125e-07, global = -5.04684e-18, cumulative = 1.59987e-15
ExecutionTime = 19.08 s  ClockTime = 21 s

Time = 1966

smoothSolver:  Solving for Ux, Initial residual = 1.5226e-06, Final residual = 1.5226e-06, No Iterations 0
smoothSolver:  Solving for Uy, Initial residual = 1.97604e-06, Final residual = 1.97604e-06, No Iterations 0
GAMG:  Solving for p, Initial residual = 1.08599e-06, Final residual = 3.66002e-07, No Iterations 1
time step continuity errors : sum local = 8.92479e-08, global = 2.92203e-17, cumulative = 1.62909e-15
ExecutionTime = 19.1 s  ClockTime = 21 s

Time = 1967

smoothSolver:  Solving for Ux, Initial residual = 1.51558e-06, Final residual = 1.51558e-06, No Iterations 0
smoothSolver:  Solving for Uy, Initial residual = 1.97977e-06, Final residual = 1.97977e-06, No Iterations 0
GAMG:  Solving for p, Initial residual = 5.10947e-07, Final residual = 5.10947e-07, No Iterations 0
time step continuity errors : sum local = 1.21118e-07, global = -2.79708e-18, cumulative = 1.62629e-15
ExecutionTime = 19.11 s  ClockTime = 21 s

Time = 1968

smoothSolver:  Solving for Ux, Initial residual = 1.51496e-06, Final residual = 1.51496e-06, No Iterations 0
smoothSolver:  Solving for Uy, Initial residual = 1.97466e-06, Final residual = 1.97466e-06, No Iterations 0
GAMG:  Solving for p, Initial residual = 6.79599e-07, Final residual = 6.79599e-07, No Iterations 0
time step continuity errors : sum local = 1.58399e-07, global = -1.10948e-18, cumulative = 1.62518e-15
ExecutionTime = 19.12 s  ClockTime = 21 s

Time = 1969

smoothSolver:  Solving for Ux, Initial residual = 1.51481e-06, Final residual = 1.51481e-06, No Iterations 0
smoothSolver:  Solving for Uy, Initial residual = 1.97018e-06, Final residual = 1.97018e-06, No Iterations 0
GAMG:  Solving for p, Initial residual = 8.69705e-07, Final residual = 8.69705e-07, No Iterations 0
time step continuity errors : sum local = 2.00438e-07, global = -3.43116e-18, cumulative = 1.62175e-15
ExecutionTime = 19.13 s  ClockTime = 21 s

Time = 1970

smoothSolver:  Solving for Ux, Initial residual = 1.51465e-06, Final residual = 1.51465e-06, No Iterations 0
smoothSolver:  Solving for Uy, Initial residual = 1.96576e-06, Final residual = 1.96576e-06, No Iterations 0
GAMG:  Solving for p, Initial residual = 1.07949e-06, Final residual = 3.63202e-07, No Iterations 1
time step continuity errors : sum local = 8.89964e-08, global = 1.30681e-17, cumulative = 1.63482e-15
ExecutionTime = 19.14 s  ClockTime = 21 s

Time = 1971

smoothSolver:  Solving for Ux, Initial residual = 1.50767e-06, Final residual = 1.50767e-06, No Iterations 0
smoothSolver:  Solving for Uy, Initial residual = 1.96946e-06, Final residual = 1.96946e-06, No Iterations 0
GAMG:  Solving for p, Initial residual = 5.07417e-07, Final residual = 5.07417e-07, No Iterations 0
time step continuity errors : sum local = 1.20709e-07, global = -8.6787e-18, cumulative = 1.62614e-15
ExecutionTime = 19.15 s  ClockTime = 21 s

Time = 1972

smoothSolver:  Solving for Ux, Initial residual = 1.50706e-06, Final residual = 1.50706e-06, No Iterations 0
smoothSolver:  Solving for Uy, Initial residual = 1.96438e-06, Final residual = 1.96438e-06, No Iterations 0
GAMG:  Solving for p, Initial residual = 6.75139e-07, Final residual = 6.75139e-07, No Iterations 0
time step continuity errors : sum local = 1.57784e-07, global = -7.08793e-18, cumulative = 1.61905e-15
ExecutionTime = 19.16 s  ClockTime = 21 s

Time = 1973

smoothSolver:  Solving for Ux, Initial residual = 1.5069e-06, Final residual = 1.5069e-06, No Iterations 0
smoothSolver:  Solving for Uy, Initial residual = 1.95992e-06, Final residual = 1.95992e-06, No Iterations 0
GAMG:  Solving for p, Initial residual = 8.64204e-07, Final residual = 8.64204e-07, No Iterations 0
time step continuity errors : sum local = 1.99592e-07, global = -9.11462e-18, cumulative = 1.60994e-15
ExecutionTime = 19.17 s  ClockTime = 21 s

Time = 1974

smoothSolver:  Solving for Ux, Initial residual = 1.50675e-06, Final residual = 1.50675e-06, No Iterations 0
smoothSolver:  Solving for Uy, Initial residual = 1.95552e-06, Final residual = 1.95552e-06, No Iterations 0
GAMG:  Solving for p, Initial residual = 1.07284e-06, Final residual = 3.60336e-07, No Iterations 1
time step continuity errors : sum local = 8.87226e-08, global = 8.56579e-18, cumulative = 1.6185e-15
ExecutionTime = 19.18 s  ClockTime = 21 s

Time = 1975

smoothSolver:  Solving for Ux, Initial residual = 1.49981e-06, Final residual = 1.49981e-06, No Iterations 0
smoothSolver:  Solving for Uy, Initial residual = 1.9592e-06, Final residual = 1.9592e-06, No Iterations 0
GAMG:  Solving for p, Initial residual = 5.03791e-07, Final residual = 5.03791e-07, No Iterations 0
time step continuity errors : sum local = 1.20271e-07, global = -3.81122e-18, cumulative = 1.61469e-15
ExecutionTime = 19.19 s  ClockTime = 21 s

Time = 1976

smoothSolver:  Solving for Ux, Initial residual = 1.49919e-06, Final residual = 1.49919e-06, No Iterations 0
smoothSolver:  Solving for Uy, Initial residual = 1.95414e-06, Final residual = 1.95414e-06, No Iterations 0
GAMG:  Solving for p, Initial residual = 6.70576e-07, Final residual = 6.70576e-07, No Iterations 0
time step continuity errors : sum local = 1.57138e-07, global = 3.63368e-17, cumulative = 1.65103e-15
ExecutionTime = 19.2 s  ClockTime = 21 s

Time = 1977

smoothSolver:  Solving for Ux, Initial residual = 1.49904e-06, Final residual = 1.49904e-06, No Iterations 0
smoothSolver:  Solving for Uy, Initial residual = 1.9497e-06, Final residual = 1.9497e-06, No Iterations 0
GAMG:  Solving for p, Initial residual = 8.58597e-07, Final residual = 8.58597e-07, No Iterations 0
time step continuity errors : sum local = 1.98716e-07, global = 6.81562e-18, cumulative = 1.65785e-15
ExecutionTime = 19.21 s  ClockTime = 21 s

Time = 1978

smoothSolver:  Solving for Ux, Initial residual = 1.49889e-06, Final residual = 1.49889e-06, No Iterations 0
smoothSolver:  Solving for Uy, Initial residual = 1.94533e-06, Final residual = 1.94533e-06, No Iterations 0
GAMG:  Solving for p, Initial residual = 1.0661e-06, Final residual = 3.57409e-07, No Iterations 1
time step continuity errors : sum local = 8.84277e-08, global = -1.7775e-17, cumulative = 1.64007e-15
ExecutionTime = 19.23 s  ClockTime = 21 s

Time = 1979

smoothSolver:  Solving for Ux, Initial residual = 1.49198e-06, Final residual = 1.49198e-06, No Iterations 0
smoothSolver:  Solving for Uy, Initial residual = 1.94899e-06, Final residual = 1.94899e-06, No Iterations 0
GAMG:  Solving for p, Initial residual = 5.00094e-07, Final residual = 5.00094e-07, No Iterations 0
time step continuity errors : sum local = 1.1981e-07, global = 4.22109e-18, cumulative = 1.64429e-15
ExecutionTime = 19.24 s  ClockTime = 21 s

Time = 1980

smoothSolver:  Solving for Ux, Initial residual = 1.49137e-06, Final residual = 1.49137e-06, No Iterations 0
smoothSolver:  Solving for Uy, Initial residual = 1.94396e-06, Final residual = 1.94396e-06, No Iterations 0
GAMG:  Solving for p, Initial residual = 6.65942e-07, Final residual = 6.65942e-07, No Iterations 0
time step continuity errors : sum local = 1.5647e-07, global = -3.03289e-17, cumulative = 1.61396e-15
ExecutionTime = 19.24 s  ClockTime = 21 s

Time = 1981

smoothSolver:  Solving for Ux, Initial residual = 1.49122e-06, Final residual = 1.49122e-06, No Iterations 0
smoothSolver:  Solving for Uy, Initial residual = 1.93954e-06, Final residual = 1.93954e-06, No Iterations 0
GAMG:  Solving for p, Initial residual = 8.52914e-07, Final residual = 8.52914e-07, No Iterations 0
time step continuity errors : sum local = 1.97816e-07, global = -6.21919e-18, cumulative = 1.60774e-15
ExecutionTime = 19.26 s  ClockTime = 21 s

Time = 1982

smoothSolver:  Solving for Ux, Initial residual = 1.49107e-06, Final residual = 1.49107e-06, No Iterations 0
smoothSolver:  Solving for Uy, Initial residual = 1.93519e-06, Final residual = 1.93519e-06, No Iterations 0
GAMG:  Solving for p, Initial residual = 1.05928e-06, Final residual = 3.54433e-07, No Iterations 1
time step continuity errors : sum local = 8.81139e-08, global = 1.44167e-17, cumulative = 1.62216e-15
ExecutionTime = 19.27 s  ClockTime = 21 s

Time = 1983

smoothSolver:  Solving for Ux, Initial residual = 1.4842e-06, Final residual = 1.4842e-06, No Iterations 0
smoothSolver:  Solving for Uy, Initial residual = 1.93883e-06, Final residual = 1.93883e-06, No Iterations 0
GAMG:  Solving for p, Initial residual = 4.9634e-07, Final residual = 4.9634e-07, No Iterations 0
time step continuity errors : sum local = 1.19328e-07, global = -1.32547e-18, cumulative = 1.62083e-15
ExecutionTime = 19.28 s  ClockTime = 21 s

Time = 1984

smoothSolver:  Solving for Ux, Initial residual = 1.48359e-06, Final residual = 1.48359e-06, No Iterations 0
smoothSolver:  Solving for Uy, Initial residual = 1.93383e-06, Final residual = 1.93383e-06, No Iterations 0
GAMG:  Solving for p, Initial residual = 6.61255e-07, Final residual = 6.61255e-07, No Iterations 0
time step continuity errors : sum local = 1.55782e-07, global = 1.83215e-17, cumulative = 1.63916e-15
ExecutionTime = 19.29 s  ClockTime = 21 s

Time = 1985

smoothSolver:  Solving for Ux, Initial residual = 1.48344e-06, Final residual = 1.48344e-06, No Iterations 0
smoothSolver:  Solving for Uy, Initial residual = 1.92944e-06, Final residual = 1.92944e-06, No Iterations 0
GAMG:  Solving for p, Initial residual = 8.47187e-07, Final residual = 8.47187e-07, No Iterations 0
time step continuity errors : sum local = 1.96898e-07, global = 8.97966e-18, cumulative = 1.64814e-15
ExecutionTime = 19.3 s  ClockTime = 21 s

Time = 1986

smoothSolver:  Solving for Ux, Initial residual = 1.48329e-06, Final residual = 1.48329e-06, No Iterations 0
smoothSolver:  Solving for Uy, Initial residual = 1.92511e-06, Final residual = 1.92511e-06, No Iterations 0
GAMG:  Solving for p, Initial residual = 1.05244e-06, Final residual = 3.51418e-07, No Iterations 1
time step continuity errors : sum local = 8.77834e-08, global = 1.95235e-17, cumulative = 1.66766e-15
ExecutionTime = 19.31 s  ClockTime = 21 s

Time = 1987

smoothSolver:  Solving for Ux, Initial residual = 1.47646e-06, Final residual = 1.47646e-06, No Iterations 0
smoothSolver:  Solving for Uy, Initial residual = 1.92874e-06, Final residual = 1.92874e-06, No Iterations 0
GAMG:  Solving for p, Initial residual = 4.92543e-07, Final residual = 4.92543e-07, No Iterations 0
time step continuity errors : sum local = 1.18829e-07, global = -1.05879e-19, cumulative = 1.66755e-15
ExecutionTime = 19.32 s  ClockTime = 21 s

Time = 1988

smoothSolver:  Solving for Ux, Initial residual = 1.47585e-06, Final residual = 1.47585e-06, No Iterations 0
smoothSolver:  Solving for Uy, Initial residual = 1.92376e-06, Final residual = 1.92376e-06, No Iterations 0
GAMG:  Solving for p, Initial residual = 6.56539e-07, Final residual = 6.56539e-07, No Iterations 0
time step continuity errors : sum local = 1.5508e-07, global = 1.17825e-17, cumulative = 1.67934e-15
ExecutionTime = 19.33 s  ClockTime = 21 s

Time = 1989

smoothSolver:  Solving for Ux, Initial residual = 1.4757e-06, Final residual = 1.4757e-06, No Iterations 0
smoothSolver:  Solving for Uy, Initial residual = 1.91939e-06, Final residual = 1.91939e-06, No Iterations 0
GAMG:  Solving for p, Initial residual = 8.4144e-07, Final residual = 8.4144e-07, No Iterations 0
time step continuity errors : sum local = 1.95968e-07, global = 2.12802e-17, cumulative = 1.70062e-15
ExecutionTime = 19.34 s  ClockTime = 21 s

Time = 1990

smoothSolver:  Solving for Ux, Initial residual = 1.47555e-06, Final residual = 1.47555e-06, No Iterations 0
smoothSolver:  Solving for Uy, Initial residual = 1.91508e-06, Final residual = 1.91508e-06, No Iterations 0
GAMG:  Solving for p, Initial residual = 1.04559e-06, Final residual = 3.48374e-07, No Iterations 1
time step continuity errors : sum local = 8.74381e-08, global = -8.19969e-18, cumulative = 1.69242e-15
ExecutionTime = 19.35 s  ClockTime = 21 s

Time = 1991

smoothSolver:  Solving for Ux, Initial residual = 1.46875e-06, Final residual = 1.46875e-06, No Iterations 0
smoothSolver:  Solving for Uy, Initial residual = 1.9187e-06, Final residual = 1.9187e-06, No Iterations 0
GAMG:  Solving for p, Initial residual = 4.88717e-07, Final residual = 4.88717e-07, No Iterations 0
time step continuity errors : sum local = 1.18315e-07, global = -2.33552e-17, cumulative = 1.66906e-15
ExecutionTime = 19.36 s  ClockTime = 21 s

Time = 1992

smoothSolver:  Solving for Ux, Initial residual = 1.46815e-06, Final residual = 1.46815e-06, No Iterations 0
smoothSolver:  Solving for Uy, Initial residual = 1.91375e-06, Final residual = 1.91375e-06, No Iterations 0
GAMG:  Solving for p, Initial residual = 6.51804e-07, Final residual = 6.51804e-07, No Iterations 0
time step continuity errors : sum local = 1.54365e-07, global = -1.39078e-17, cumulative = 1.65515e-15
ExecutionTime = 19.37 s  ClockTime = 21 s

Time = 1993

smoothSolver:  Solving for Ux, Initial residual = 1.468e-06, Final residual = 1.468e-06, No Iterations 0
smoothSolver:  Solving for Uy, Initial residual = 1.9094e-06, Final residual = 1.9094e-06, No Iterations 0
GAMG:  Solving for p, Initial residual = 8.35687e-07, Final residual = 8.35687e-07, No Iterations 0
time step continuity errors : sum local = 1.95028e-07, global = 1.26001e-17, cumulative = 1.66775e-15
ExecutionTime = 19.38 s  ClockTime = 21 s

Time = 1994

smoothSolver:  Solving for Ux, Initial residual = 1.46785e-06, Final residual = 1.46785e-06, No Iterations 0
smoothSolver:  Solving for Uy, Initial residual = 1.90512e-06, Final residual = 1.90512e-06, No Iterations 0
GAMG:  Solving for p, Initial residual = 1.03874e-06, Final residual = 6.57325e-07, No Iterations 1
time step continuity errors : sum local = 1.47246e-07, global = -3.91329e-18, cumulative = 1.66384e-15
ExecutionTime = 19.39 s  ClockTime = 21 s

Time = 1995

smoothSolver:  Solving for Ux, Initial residual = 1.46554e-06, Final residual = 1.46554e-06, No Iterations 0
smoothSolver:  Solving for Uy, Initial residual = 1.90953e-06, Final residual = 1.90953e-06, No Iterations 0
GAMG:  Solving for p, Initial residual = 8.53059e-07, Final residual = 8.53059e-07, No Iterations 0
time step continuity errors : sum local = 1.90681e-07, global = 1.0014e-17, cumulative = 1.67385e-15
ExecutionTime = 19.4 s  ClockTime = 21 s

Time = 1996

smoothSolver:  Solving for Ux, Initial residual = 1.46351e-06, Final residual = 1.46351e-06, No Iterations 0
smoothSolver:  Solving for Uy, Initial residual = 1.90284e-06, Final residual = 1.90284e-06, No Iterations 0
GAMG:  Solving for p, Initial residual = 1.04769e-06, Final residual = 3.58464e-07, No Iterations 1
time step continuity errors : sum local = 8.26913e-08, global = -1.07666e-17, cumulative = 1.66309e-15
ExecutionTime = 19.42 s  ClockTime = 21 s

Time = 1997

smoothSolver:  Solving for Ux, Initial residual = 1.45428e-06, Final residual = 1.45428e-06, No Iterations 0
smoothSolver:  Solving for Uy, Initial residual = 1.90897e-06, Final residual = 1.90897e-06, No Iterations 0
GAMG:  Solving for p, Initial residual = 4.92423e-07, Final residual = 4.92423e-07, No Iterations 0
time step continuity errors : sum local = 1.12378e-07, global = -4.93216e-18, cumulative = 1.65816e-15
ExecutionTime = 19.43 s  ClockTime = 21 s

Time = 1998

smoothSolver:  Solving for Ux, Initial residual = 1.45364e-06, Final residual = 1.45364e-06, No Iterations 0
smoothSolver:  Solving for Uy, Initial residual = 1.90394e-06, Final residual = 1.90394e-06, No Iterations 0
GAMG:  Solving for p, Initial residual = 6.51329e-07, Final residual = 6.51329e-07, No Iterations 0
time step continuity errors : sum local = 1.47523e-07, global = 1.40719e-17, cumulative = 1.67223e-15
ExecutionTime = 19.43 s  ClockTime = 21 s

Time = 1999

smoothSolver:  Solving for Ux, Initial residual = 1.45339e-06, Final residual = 1.45339e-06, No Iterations 0
smoothSolver:  Solving for Uy, Initial residual = 1.89949e-06, Final residual = 1.89949e-06, No Iterations 0
GAMG:  Solving for p, Initial residual = 8.32546e-07, Final residual = 8.32546e-07, No Iterations 0
time step continuity errors : sum local = 1.87602e-07, global = 3.88537e-18, cumulative = 1.67611e-15
ExecutionTime = 19.44 s  ClockTime = 21 s

Time = 2000

smoothSolver:  Solving for Ux, Initial residual = 1.45319e-06, Final residual = 1.45319e-06, No Iterations 0
smoothSolver:  Solving for Uy, Initial residual = 1.89515e-06, Final residual = 1.89515e-06, No Iterations 0
GAMG:  Solving for p, Initial residual = 1.03296e-06, Final residual = 3.53091e-07, No Iterations 1
time step continuity errors : sum local = 8.18753e-08, global = 2.45955e-17, cumulative = 1.70071e-15
ExecutionTime = 19.47 s  ClockTime = 21 s

End

